  62
        -98.93635700
 C          1.7691135288        1.2128230215        0.4278064550
 C          2.4884366424        0.6584118808       -0.6552277615
 C          3.6714310130       -0.1561724182       -0.3123166776
 C          3.9655114616       -0.3721859243        0.9822636369
 C          5.1108467138       -1.1534539331        1.5754493454
 C          5.4357340358       -2.5068250388        0.9245399755
 C          6.7504676403       -2.5060314710        0.1424635939
 H          7.4858267058       -1.9222507947        0.7000738825
 H          7.1236276561       -3.5310940677        0.0862656409
 C          6.6575367187       -1.9701436607       -1.2852058865
 H          7.6750851593       -1.8916013794       -1.6751960144
 H          6.1260532938       -2.6926718686       -1.9084619173
 C          5.9703283287       -0.6109487097       -1.4305740171
 H          6.2755231404        0.0590242385       -0.6275323389
 H          6.3117279111       -0.1631261054       -2.3662166548
 C          4.4377467975       -0.6996172487       -1.4870910514
 H          4.1291802351       -1.7345512381       -1.6614917604
 H          4.0670336849       -0.1298619932       -2.3449822259
 H          5.5197941257       -3.2474011633        1.7217369286
 H          4.6126908331       -2.8176826805        0.2827023296
 H          6.0002483852       -0.5183285714        1.5726136175
 H          4.8391444057       -1.3020833211        2.6231350069
 O          3.2138538987        0.1488626161        1.9953384892
 C          2.1120801759        0.9474604257        1.7518209724
 O          1.5227058628        1.3427236008        2.7790599888
 O          2.1674466212        0.8361587999       -1.8590301164
 C          0.5559403046        2.0890862437        0.1708945373
 C         -0.5065712892        1.2952348118       -0.5506882097
 C         -1.1581404827        1.7400190271       -1.6926953211
 C         -2.1195839475        0.9517469135       -2.3030093454
 C         -2.4600839932       -0.2835412342       -1.7850411689
 C         -1.8297185871       -0.7279366694       -0.6287571128
 C         -0.8677068915        0.0622799768       -0.0198645847
 H         -0.3751981738       -0.2863613662        0.8800293916
 N         -2.1852145029       -1.9708947667       -0.0786914730
 S         -3.8129786591       -2.3481959607        0.0158410800
 O         -3.9295341038       -3.2426976004        1.1463859733
 O         -4.2624850144       -2.8750603369       -1.2487884048
 C         -4.6396842277       -0.8022663705        0.3499693224
 C         -4.2760515737       -0.0986897964        1.4811807988
 C         -4.8875514024        1.1171905724        1.7393881875
 C         -5.8486534343        1.6057405649        0.8673400724
 C         -6.2074054479        0.8844124849       -0.2604867036
 C         -5.5966625428       -0.3309377242       -0.5254484346
 H         -5.8414388737       -0.9224241681       -1.3926072848
 H         -6.9565896380        1.2656139087       -0.9353866974
 H         -6.3199588641        2.5543509888        1.0703459449
 H         -4.6083785823        1.6790503923        2.6163936217
 H         -3.5277916242       -0.5054260647        2.1429949772
 H         -1.7040206128       -2.1941061758        0.7796433208
 H         -3.1931925686       -0.9156015199       -2.2593658761
 H         -2.6084042401        1.3039027219       -3.1982852700
 H         -0.9062057148        2.6990637991       -2.1134709874
 H          0.1621665531        2.3546258104        1.1629499850
 C          0.9635648885        3.3583026733       -0.5465808800
 C          0.1627938108        4.6123122325       -0.3702629435
 C          1.5186579963        4.4946518864        0.2566730060
 H          2.3330133520        5.0696854531       -0.1578516091
 H          1.5806096619        4.3618176562        1.3273110381
 H          0.0472574352        5.2739144265       -1.2153445678
 H         -0.6993575475        4.5678701731        0.2775999683
 H          1.4115298592        3.1648141435       -1.5140870869
