  62
        -98.94442370
 C         -1.9455549070       -1.0824152075       -0.2158186755
 C         -2.4432371228        0.0769221306       -0.8575063871
 C         -3.8990672013        0.2706888540       -0.7840978219
 C         -4.6572972245       -0.6480158079       -0.1583327529
 C         -6.1417886685       -0.5460049626        0.0370272245
 C         -6.4798882721        0.1477058498        1.3642010418
 C         -5.7224358475        1.4566789402        1.5877029141
 H         -6.0624402623        1.8706812937        2.5394227708
 H         -4.6570682443        1.2396140224        1.6936893208
 C         -5.9164580988        2.4998915498        0.4784610421
 H         -6.0946790485        3.4732204716        0.9404567961
 H         -6.8008041190        2.2544880149       -0.1107557434
 C         -4.7157210425        2.6637783695       -0.4554506118
 H         -3.8085969556        2.8174939642        0.1348654764
 H         -4.8716321739        3.5647073645       -1.0549863347
 C         -4.4643248578        1.5048701891       -1.4284784914
 H         -5.3832208302        1.2725239394       -1.9707056499
 H         -3.7124275966        1.8355617624       -2.1511907595
 H         -7.5543749326        0.3379177941        1.3902547115
 H         -6.2352025573       -0.5333539246        2.1825449737
 H         -6.5753914352        0.0057592295       -0.7946326627
 H         -6.5575049216       -1.5549300874        0.0482841277
 O         -4.1441719029       -1.7641173537        0.4198189917
 C         -2.7796792487       -2.0022457935        0.4192910325
 O         -2.4376680634       -3.0467429500        1.0097051163
 O         -1.7137566477        0.9084109640       -1.4582843718
 C         -0.4534620508       -1.3651074117       -0.2157801026
 C          0.2902095204       -0.1897249967        0.3698541084
 C         -0.1162140935        0.3072464338        1.6064805309
 C          0.5145752827        1.3965007596        2.1734408315
 C          1.5765261303        2.0057261237        1.5272667413
 C          1.9975218402        1.5126591117        0.2991504163
 C          1.3595121237        0.4167717048       -0.2689698122
 H          1.6981397519        0.0700206256       -1.2302621260
 N          3.0647820944        2.1189615345       -0.3835097903
 S          4.2660042236        1.1805703383       -1.0685441406
 O          5.3585906703        2.1004004972       -1.2960523244
 O          3.7663637564        0.4865230767       -2.2269153375
 C          4.7014983202        0.0232606895        0.2161401663
 C          5.5082492484        0.4669223309        1.2461372684
 C          5.8008957300       -0.3967928856        2.2885991856
 C          5.2767354665       -1.6807394638        2.2880813360
 C          4.4697597119       -2.1108427192        1.2463683235
 C          4.1767628189       -1.2526108374        0.1980374378
 H          3.5575033216       -1.5521285819       -0.6311592512
 H          4.0647230365       -3.1103205094        1.2464531295
 H          5.5001001384       -2.3518328656        3.1023994841
 H          6.4326972450       -0.0674033578        3.0976326043
 H          5.9037830057        1.4688336853        1.2037151789
 H          3.4612166686        2.9175198047        0.0901386691
 H          2.0658169437        2.8630174156        1.9639976960
 H          0.1796484076        1.7755545655        3.1272664805
 H         -0.9472531540       -0.1683539448        2.1101408706
 H         -0.3091248367       -2.2301825375        0.4479824125
 C          0.0037839995       -1.7412832598       -1.6094079055
 C          1.1490297877       -2.6883820087       -1.7981401137
 C         -0.2488848144       -3.1313046955       -2.1075982168
 H         -0.5347245536       -3.2645128116       -3.1401732264
 H         -0.7294068711       -3.8207539025       -1.4284535618
 H          1.8316708460       -2.5160021040       -2.6174482670
 H          1.6121211684       -3.0915900034       -0.9099278431
 H         -0.1125362250       -0.9318933653       -2.3215874338
