  62
        -98.93984874
 C          2.5757688716        0.0714939855       -0.4813346905
 C          2.2237537870        0.7170054404        0.7272129281
 C          1.8055508467        2.1251771873        0.6165198056
 C          1.7202983493        2.6945668933       -0.5979547679
 C          1.3303179229        4.1082990010       -0.9520333811
 C          0.1523582670        4.7322467652       -0.1932078693
 C         -0.9582848371        3.7521973841        0.2143023042
 H         -1.9205351112        4.1483459697       -0.1172052119
 H         -0.8229504008        2.7860868001       -0.2781396313
 C         -1.0332867523        3.5401780138        1.7279875227
 H         -2.0221871202        3.1478347314        1.9769769982
 H         -0.9233960211        4.5076035301        2.2246357313
 C         -0.0122669877        2.5575651736        2.2997117312
 H         -0.0895728006        2.5885406009        3.3898408836
 H         -0.2756956498        1.5431052715        1.9897029030
 C          1.4513069398        2.8104500875        1.9052247391
 H          1.6700590030        3.8755776372        1.8639325301
 H          2.0846695354        2.3531631103        2.6708000809
 H         -0.2651213560        5.5044836251       -0.8416532932
 H          0.5213962351        5.2362791174        0.6991458301
 H          2.2121489138        4.7445820629       -0.8302849160
 H          1.1011535436        4.0766200419       -2.0200439801
 O          2.0383407034        2.0230943729       -1.7418198589
 C          2.4657138734        0.7087909669       -1.7148299477
 O          2.7199806046        0.2254212556       -2.8388611971
 H          0.3966469315       -1.0496186804       -0.9842204606
 C          0.5582492622       -1.9030175563       -0.3418765970
 C          1.8507267107       -2.2400367896        0.0371754681
 C          2.0332186285       -3.3517954406        0.8500188114
 C          0.9429273603       -4.0849707143        1.2863286843
 C         -0.3447977230       -3.7192275501        0.9391510699
 C         -0.5367710883       -2.6155954479        0.1163138036
 N         -1.8286330871       -2.2041605978       -0.2747330932
 S         -2.1433113044       -0.5465711711       -0.1103705680
 O         -1.5597952592        0.1664138794       -1.2186851631
 O         -1.7615182430       -0.1150443661        1.2142234217
 C         -3.9195318448       -0.5435264345       -0.2675658464
 C         -4.4700827788       -0.6251397255       -1.5323312522
 C         -5.8494395220       -0.6588913976       -1.6614576493
 C         -6.6504470284       -0.6120175763       -0.5298815018
 C         -6.0833830597       -0.5284260691        0.7328105194
 C         -4.7042604171       -0.4952029859        0.8688528453
 H         -4.2178979694       -0.4219752907        1.8283987657
 H         -6.7084063228       -0.4887741485        1.6102700132
 H         -7.7236590166       -0.6382191816       -0.6333483413
 H         -6.2934528921       -0.7210219835       -2.6418482413
 H         -3.8063541359       -0.6504098176       -2.3810156561
 H         -2.5493795061       -2.7318889190        0.2022296527
 H         -1.1940732867       -4.2795605447        1.3004326118
 H          1.0980409658       -4.9448160999        1.9203597264
 H          3.0283722552       -3.6388532284        1.1484049026
 C          2.9882911884       -1.3889999857       -0.4771590188
 H          3.1584289748       -1.6565025880       -1.5314978877
 C          4.2798486048       -1.5820226665        0.2901319588
 C          5.2456413913       -2.6556751316       -0.1100138624
 C          5.5729009594       -1.2175261454       -0.3733545718
 H          6.3404989429       -0.7428715822        0.2189649582
 H          5.5207668474       -0.8568723789       -1.3906887071
 H          4.9832422193       -3.2756843720       -0.9539868521
 H          5.7946641047       -3.1696820365        0.6645235800
 H          4.1742675358       -1.3499085281        1.3434907044
 O          2.2749642813        0.1529820689        1.8521531953
