  62
        -98.93842825
 C         -0.5776542381       -1.6876188422        0.1543881598
 C         -0.9976433267       -0.6255846863       -0.6798612278
 C         -2.2347568988        0.0768345066       -0.2781076552
 C         -2.8123772653       -0.2135743762        0.9010834747
 C         -4.0212114275        0.3731662470        1.6000662831
 C         -4.9684025487        1.3112945350        0.8579699933
 C         -5.8032000753        0.6369338014       -0.2322537813
 H         -6.5590731145        0.0119517096        0.2500252157
 H         -6.3255158957        1.4121169243       -0.7967433568
 C         -5.0319255983       -0.2526778792       -1.2046745474
 H         -4.5470468763       -1.0624672216       -0.6560148524
 H         -5.7556350432       -0.7127937965       -1.8830682823
 C         -3.9872776189        0.4619836671       -2.0590166563
 H         -3.5987559424       -0.2602955603       -2.7826481922
 H         -4.4612199657        1.2710861808       -2.6186008621
 C         -2.7914637638        1.0406482472       -1.2857672783
 H         -1.9853022625        1.2384429847       -1.9984817746
 H         -3.0528599786        1.9852891244       -0.8196255750
 H         -4.4197346065        2.1571393687        0.4550519550
 H         -5.6628264951        1.7094050269        1.6026679741
 H         -4.5908878858       -0.4801804218        1.9818246596
 H         -3.6287020319        0.8952272990        2.4789781780
 O         -2.2906726121       -1.1592766248        1.7372132527
 C         -1.2198582225       -1.9479022185        1.3676119386
 O         -0.9289580511       -2.8343360150        2.1953364581
 H          1.7479332555       -0.2331967222       -0.8073089970
 C          2.3079977893       -0.7647710334       -0.0537322163
 C          1.8767263554       -2.0111596074        0.3792689684
 C          2.6201759335       -2.6845096250        1.3414896832
 C          3.7684242238       -2.1183203786        1.8653908518
 C          4.1829434813       -0.8651404649        1.4537795356
 C          3.4435111673       -0.1828187463        0.4918973903
 N          3.8357934180        1.0974515130        0.0891509608
 S          2.8768999813        2.1608719622       -0.7484685118
 O          2.6629275273        1.6929986168       -2.0940027926
 O          3.5888173079        3.4188925914       -0.6379020661
 C          1.3180210889        2.3499912344        0.1065479555
 C          0.3715785656        3.1119435852       -0.5487663128
 C         -0.8292985693        3.3901182197        0.0813777737
 C         -1.0751157113        2.8847542679        1.3482244797
 C         -0.1201222307        2.1149643739        1.9906517433
 C          1.0950976636        1.8552609736        1.3748584664
 H          1.8451659476        1.2639757441        1.8746405519
 H         -0.3119601450        1.7134467423        2.9734130563
 H         -2.0132437294        3.0929145824        1.8381854862
 H         -1.5651950032        3.9998678121       -0.4179118861
 H          0.5960556415        3.4700056243       -1.5408575567
 H          4.5383219487        1.5533704139        0.6501088088
 H          5.0671249718       -0.4110223308        1.8736899692
 H          4.3385236382       -2.6504053065        2.6114897280
 H          2.2802939908       -3.6476615868        1.6918167573
 C          0.5970898806       -2.6031856090       -0.1581312859
 H          0.4027550535       -3.5316786429        0.3969492378
 C          0.7337836229       -2.9477091625       -1.6272141852
 C          1.4179435907       -4.2242090100       -2.0102152571
 C         -0.0633916577       -4.0835280513       -2.1906817413
 H         -0.4580467924       -3.9883045278       -3.1910779878
 H         -0.7125375473       -4.6222319603       -1.5153252638
 H          2.0454685943       -4.2272805511       -2.8882280732
 H          1.7716907951       -4.8625764693       -1.2146150830
 H          0.8865596392       -2.0845180833       -2.2616608593
 O         -0.3955328595       -0.2590030492       -1.7237463825
