  62
        -98.94487287
 C         -0.9956404008       -1.1694587371       -0.2841073769
 C         -2.0379268495       -1.3196985319        0.6689784159
 C         -2.9298998597       -0.1694661135        0.8545996850
 C         -2.7115851127        0.9483269594        0.1387506353
 C         -3.5787898242        2.1723028799        0.1752571063
 C         -4.6871979252        2.0992382118       -0.8845762080
 C         -5.4620198016        0.7815846875       -0.8813777152
 H         -6.2354693347        0.8567964256       -1.6489503078
 H         -4.7913487023       -0.0272995032       -1.1802882800
 C         -6.1104781056        0.4294930502        0.4646978296
 H         -6.1734539870        1.3204614928        1.0903749779
 H         -7.1319611330        0.0884451142        0.2830671254
 C         -5.4002760435       -0.6830833088        1.2380312855
 H         -5.2539336036       -1.5472851455        0.5850666450
 H         -6.0532459850       -0.9990929544        2.0560467132
 C         -4.0455422548       -0.3080886191        1.8520800520
 H         -3.7490946215       -1.1201995664        2.5222408964
 H         -4.1500188274        0.6042317437        2.4425142436
 H         -4.2325342315        2.2248485843       -1.8698687606
 H         -5.3777162197        2.9285272962       -0.7204476611
 H         -4.0157811312        2.2723718787        1.1667272872
 H         -2.9538572071        3.0417834989       -0.0299186781
 O         -1.6949414843        1.0661882756       -0.7490641222
 C         -0.8143627698        0.0204591304       -0.9904480353
 O          0.0528088904        0.2968681365       -1.8425586185
 O         -2.2174355304       -2.3784232937        1.3292023053
 C         -0.0824536770       -2.3690217227       -0.4707696566
 C          1.1508082347       -2.2563389957        0.3938614752
 C          1.4872877884       -3.2631762124        1.2906535561
 C          2.6228055616       -3.1544534173        2.0737310006
 C          3.4369348428       -2.0408780723        1.9807030065
 C          3.1034264408       -1.0229043314        1.0921451114
 C          1.9690892839       -1.1391421363        0.3022465103
 H          1.7270987129       -0.3575037164       -0.3994111123
 N          3.8766008136        0.1382874891        1.0265902868
 S          3.8099629492        1.2314936842       -0.2257459401
 O          3.8607819923        0.5820251097       -1.5142780627
 O          4.9097490009        2.1343408428        0.0530495816
 C          2.2862666346        2.1229543842        0.0000745974
 C          1.7090353462        2.7239680355       -1.0993143222
 C          0.5696997889        3.4923631673       -0.9235954652
 C          0.0289797570        3.6426387596        0.3426447674
 C          0.6134970867        3.0229861055        1.4359580473
 C          1.7572276749        2.2598062070        1.2677048269
 H          2.2329619476        1.7657468615        2.0989798207
 H          0.1810063224        3.1307915015        2.4180344321
 H         -0.8555335446        4.2451639996        0.4795317573
 H          0.1045052502        3.9596369757       -1.7767611621
 H          2.1486743559        2.5656074263       -2.0709657280
 H          4.7481417907        0.1417079487        1.5324255950
 H          4.3208659732       -1.9523071631        2.5931976521
 H          2.8762838319       -3.9436125965        2.7651076027
 H          0.8465109745       -4.1277819656        1.3799175581
 H         -0.6622433880       -3.2312743732       -0.1127829248
 C          0.3175457910       -2.6271662053       -1.9101243013
 C          0.6748526776       -4.0212527496       -2.3269154334
 C         -0.6038987469       -3.4005853535       -2.8025013754
 H         -0.6851356906       -3.1053348671       -3.8377635837
 H         -1.5310852338       -3.7549200319       -2.3756565506
 H          1.4775251720       -4.1547607477       -3.0359005471
 H          0.6120453077       -4.8000950965       -1.5820349189
 H          0.8744181786       -1.8119074672       -2.3544022788
