  62
        -98.93916516
 C          1.8987873607        0.7429183972        0.7182883511
 C          2.1375051802        0.2275175517       -0.5793642714
 C          2.6727566288       -1.1400033914       -0.6320038264
 C          2.8174540379       -1.8503489757        0.5000569460
 C          3.3289371487       -3.2617189919        0.6032948674
 C          4.8601431200       -3.3687506132        0.6295986175
 C          5.5553375353       -3.0928228831       -0.7043374083
 H          6.5935555936       -3.4124541421       -0.5954788158
 H          5.1036738692       -3.7099150251       -1.4815224363
 C          5.5354263628       -1.6202061557       -1.1373876018
 H          5.2931512781       -0.9910264981       -0.2777022373
 H          6.5310806007       -1.3268701601       -1.4773654476
 C          4.5587165051       -1.3060716837       -2.2707578350
 H          4.8674709819       -1.8317720187       -3.1768459191
 H          4.6019396524       -0.2328095897       -2.4725756611
 C          3.0998567784       -1.6725869602       -1.9665787773
 H          2.4622304040       -1.2122660417       -2.7253082659
 H          2.9661020455       -2.7534028414       -2.0056802715
 H          5.2440712966       -2.6844259972        1.3898541422
 H          5.1094352312       -4.3854800584        0.9418164208
 H          2.9373714987       -3.6653393651        1.5396536293
 H          2.9337078735       -3.8551665557       -0.2216480328
 O          2.4856194552       -1.3519101880        1.7221236481
 C          2.0354390735       -0.0491470126        1.8600049377
 O          1.7875207089        0.2818751328        3.0386174537
 O          1.9263403034        0.8635003064       -1.6439417472
 C          1.3675364986        2.1495795012        0.9285960317
 C          0.2146605533        2.4080943470       -0.0115627341
 C          0.1195608494        3.5194287457       -0.8378216197
 C         -0.9882359704        3.6916215731       -1.6501067098
 C         -2.0186916848        2.7711683799       -1.6520026514
 C         -1.9264623676        1.6464861412       -0.8373700776
 C         -0.8212346189        1.4812424587       -0.0210847338
 H         -0.7584984181        0.6085059541        0.6150172751
 N         -2.9336146408        0.6671001055       -0.8564028662
 S         -3.1750015758       -0.3046027549        0.4966689120
 O         -3.2390080555        0.5070456998        1.6924954986
 O         -2.1978657574       -1.3659669482        0.4914691313
 C         -4.7886989119       -0.9667575413        0.1251639576
 C         -5.9075451114       -0.3613905781        0.6659177449
 C         -7.1605887875       -0.8618282068        0.3487080420
 C         -7.2733319611       -1.9517906035       -0.5012424997
 C         -6.1414504379       -2.5500269944       -1.0350062809
 C         -4.8855246292       -2.0551194520       -0.7211604422
 H         -3.9772972362       -2.4915345960       -1.1033477603
 H         -6.2324390367       -3.3994876196       -1.6925286177
 H         -8.2492015851       -2.3396895515       -0.7469150224
 H         -8.0417341933       -0.4011285624        0.7652257220
 H         -5.7695120208        0.4771204108        1.3294045873
 H         -3.8021823141        0.9927026552       -1.2572419954
 H         -2.8803418875        2.9086646420       -2.2871335674
 H         -1.0497635300        4.5586686157       -2.2902922953
 H          0.9187120510        4.2417565603       -0.8613207836
 H          0.9556171386        2.1447984011        1.9528845747
 C          2.4369404354        3.2320682578        0.8958537199
 C          3.8707451153        2.9111088984        1.1936361234
 C          3.4641799591        3.3073856056       -0.1921078554
 H          3.7591458497        4.2826471270       -0.5509168973
 H          3.4312662451        2.5494308679       -0.9580001362
 H          4.4393049068        3.6113522222        1.7871914181
 H          4.1226583548        1.8767060552        1.3794645722
 H          2.0694548628        4.1758766102        1.2870760594
