  62
        -98.93831487
 C         -0.8863169894       -1.2057693700        0.8935228090
 C         -1.2850587792       -0.9392575093       -0.4381560409
 C         -2.0437704993        0.3091496508       -0.6666620503
 C         -2.3242076296        1.1043478302        0.3813275502
 C         -3.1193246797        2.3826619201        0.3870452708
 C         -4.6340788297        2.1396041000        0.2648432004
 C         -5.0396305694        1.0585300705       -0.7343220803
 H         -4.5331402193        0.1254977504       -0.4801879208
 H         -6.1130468094        0.8860843104       -0.6201314906
 C         -4.7757841392        1.3928982514       -2.2004962401
 H         -5.1468480690        0.5567384717       -2.7986329207
 H         -5.3522161992        2.2795035915       -2.4748569597
 C         -3.3132935091        1.6364096018       -2.5768708297
 H         -3.2562176089        1.6654214025       -3.6692821297
 H         -2.9790705693        2.6101793316       -2.2281841591
 C         -2.3414951991        0.5496361716       -2.1254975602
 H         -2.6708424189       -0.4147946682       -2.5289862508
 H         -1.3624227490        0.7399733020       -2.5863687899
 H         -5.1151657097        3.0821682501       -0.0009288691
 H         -5.0046664998        1.8359749894        1.2467522201
 H         -2.9243644299        2.8733140995        1.3432107111
 H         -2.7636609297        3.0414900706       -0.4005550388
 O         -1.9299322398        0.8014228994        1.6519087700
 C         -1.1706026097       -0.3183216707        1.9320132095
 O         -0.8130160399       -0.4121969913        3.1231786695
 H          1.5473736005       -0.3864504895        0.5164689999
 C          1.8302426807       -1.2869177892       -0.0097353105
 C          1.1303251808       -2.4617948594        0.2376667586
 C          1.5097235910       -3.6128346590       -0.4387185120
 C          2.5490480712       -3.5733761083       -1.3528532318
 C          3.2129522411       -2.3918222281       -1.6262903210
 C          2.8408874509       -1.2338511485       -0.9527799103
 N          3.4801463008       -0.0055512283       -1.1922997095
 S          2.5435567707        1.3800527117       -1.3051065688
 O          1.2579772408        1.1227989319       -1.9091189292
 O          3.3921019407        2.3237919422       -2.0045919681
 C          2.3428691203        1.9316102906        0.3747505915
 C          1.0804313002        2.2560146402        0.8296487614
 C          0.9282590599        2.6948717694        2.1348588917
 C          2.0392417898        2.8059675991        2.9564754019
 C          3.3022891599        2.4852230395        2.4817970420
 C          3.4603275202        2.0440647903        1.1777820317
 H          4.4238202403        1.7828223906        0.7731029717
 H          4.1619498098        2.5735928592        3.1263532622
 H          1.9153128696        3.1411417485        3.9740691121
 H         -0.0564108201        2.9294604691        2.5069580816
 H          0.2407624203        2.1373313405        0.1608561012
 H          4.1851804609       -0.0301495978       -1.9153318794
 H          4.0041478412       -2.3594821576       -2.3600900808
 H          2.8325774914       -4.4739853480       -1.8763856423
 H          0.9788311811       -4.5355969791       -0.2718523926
 C          0.0009140306       -2.3909239101        1.2372887485
 H          0.4397407804       -2.1347382707        2.2166562087
 C         -0.7336612593       -3.7094589703        1.4270411776
 C         -2.1925017493       -3.7397060307        1.7703626573
 C         -1.7281743590       -4.2214356998        0.4304447571
 H         -1.7548399489       -5.2830765697        0.2317329265
 H         -1.9218170390       -3.6083304293       -0.4351425926
 H         -2.5338863394       -4.4669384411        2.4918421068
 H         -2.7140401594       -2.7948029607        1.8223532878
 H         -0.1136573793       -4.4514024805        1.9208053072
 O         -1.0338484190       -1.7022064587       -1.4064988213
