  62
        -98.94343487
 C          2.4967919692        1.1331143173        0.0118782176
 C          3.4529459387        0.5949181062        0.9153317059
 C          4.4180220256       -0.3560850734        0.3563121407
 C          4.3767954752       -0.6503017220       -0.9554366013
 C          5.3095620597       -1.5763236797       -1.6875246900
 C          4.9216714379       -3.0583465021       -1.5926885028
 C          5.1628196056       -3.7078516499       -0.2294208691
 H          5.0579267229       -4.7860418881       -0.3655506738
 H          6.1894588520       -3.5181994799        0.0852720475
 C          4.1923745187       -3.2524769190        0.8695098239
 H          3.8271813174       -4.1242321407        1.4169719360
 H          3.3221564724       -2.7748822738        0.4130155137
 C          4.7996520314       -2.2955364054        1.8954591614
 H          5.5857437064       -2.8079667401        2.4543978983
 H          4.0161313727       -2.0083073978        2.6012244476
 C          5.3869801897       -1.0128941829        1.2922948173
 H          5.5896859006       -0.3123149335        2.1059543597
 H          6.3224409714       -1.2325336131        0.7781070181
 H          5.5118599300       -3.5970954976       -2.3376171085
 H          3.8687045541       -3.1619757493       -1.8648116123
 H          6.3256007981       -1.4405385973       -1.3157526341
 H          5.2809758657       -1.2792698598       -2.7381555569
 O          3.4613066830       -0.1001970652       -1.7938358115
 C          2.4913276770        0.7816982370       -1.3377979153
 O          1.7149713435        1.1622053188       -2.2389569040
 O          3.5018317355        0.9071545484        2.1343807306
 C          1.4979688422        2.1186817267        0.5950764544
 C          0.1574104299        1.4752704703        0.8616564360
 C         -0.3489253489        1.3962366570        2.1537543118
 C         -1.5878198955        0.8270553217        2.3915131090
 C         -2.3433883114        0.3207680401        1.3492870231
 C         -1.8450185476        0.3913580103        0.0547951766
 C         -0.6066668526        0.9714517911       -0.1814321073
 H         -0.2225033809        1.0207514092       -1.1897576060
 N         -2.5893238854       -0.1460259291       -1.0098790571
 S         -4.1984754797        0.3043430447       -1.1638693853
 O         -4.5196794674        0.1023680142       -2.5598017524
 O         -4.4319421996        1.6292083316       -0.6367700410
 C         -5.0743642346       -0.9016602663       -0.1890742752
 C         -5.9677045886       -0.4869071264        0.7791695555
 C         -6.6494556812       -1.4432320929        1.5157761457
 C         -6.4275808623       -2.7898221388        1.2716561867
 C         -5.5284208982       -3.1898416736        0.2941527042
 C         -4.8448125465       -2.2390406911       -0.4467179953
 H         -4.1397682677       -2.5079133070       -1.2157154318
 H         -5.3577712587       -4.2379145855        0.1074898736
 H         -6.9581707323       -3.5323659855        1.8464665945
 H         -7.3488521461       -1.1342826992        2.2759077966
 H         -6.1027058811        0.5710358150        0.9382108834
 H         -2.1139946477       -0.0848575936       -1.8991033360
 H         -3.3082785460       -0.1249850125        1.5280883931
 H         -1.9686805288        0.7740313247        3.3999553478
 H          0.2407522253        1.7768817187        2.9749464875
 H          1.9239862302        2.4111277454        1.5643636707
 C          1.3292558333        3.3686376351       -0.2474184354
 C          0.8143639492        4.6176349592        0.3999114086
 C          2.2479024805        4.5314108476       -0.0290546587
 H          2.5678737483        5.1026215684       -0.8875631659
 H          3.0039873280        4.4333552360        0.7362854417
 H          0.1442452978        5.2495259488       -0.1626662340
 H          0.5986769746        4.5805221647        1.4569328405
 H          1.0202536864        3.1653684443       -1.2647220231
