  62
        -98.94031430
 C         -2.4262364776       -1.2623782558        0.0580701387
 C         -3.3910458445       -0.8005584771        0.9926780785
 C         -4.4577337738        0.0543112949        0.4630848039
 C         -4.4882257314        0.3411540850       -0.8505406090
 C         -5.5259055677        1.1735744363       -1.5534028181
 C         -5.2715843298        2.6853142933       -1.4769807666
 C         -5.5261593325        3.3195365765       -0.1089526694
 H         -5.5244516717        4.4017861812       -0.2529099316
 H         -6.5203353018        3.0393177985        0.2403362336
 C         -4.4828499657        2.9623108733        0.9590872875
 H         -4.1816684397        3.8675246869        1.4910097258
 H         -3.5876415873        2.5635444480        0.4758614171
 C         -4.9659697288        1.9604929894        2.0079143760
 H         -4.1370132326        1.7514477873        2.6887666679
 H         -5.7777194757        2.4021685304        2.5900061836
 C         -5.4513710567        0.6251336627        1.4291397294
 H         -5.5604483196       -0.0860476027        2.2514422872
 H         -6.4197486513        0.7538599542        0.9460864225
 H         -4.2418494584        2.8823670975       -1.7844769277
 H         -5.9322195786        3.1632775404       -2.2040183789
 H         -6.5120827332        0.9483694192       -1.1463239160
 H         -5.5059613123        0.8734693807       -2.6033797258
 O         -3.5549355468       -0.1286729005       -1.7185205675
 C         -2.4938376156       -0.9205379958       -1.2928556515
 O         -1.7139366499       -1.2342766098       -2.2133235693
 O         -3.3652033037       -1.1030728480        2.2148574960
 C         -1.3298697775       -2.1584180872        0.6071015809
 C         -0.0820058324       -1.3807786828        0.9361510674
 C          0.5338157126       -1.5037250293        2.1759142265
 C          1.6985920937       -0.8104150658        2.4568157886
 C          2.2749964059        0.0129613800        1.5061091241
 C          1.6659817670        0.1435034514        0.2650741576
 C          0.4951293326       -0.5450369695       -0.0104168504
 H          0.0341422053       -0.4484768350       -0.9830778280
 N          2.2679095740        0.9638989897       -0.7183473632
 S          3.6911252670        0.3178589177       -1.3567474485
 O          3.8656358696        0.9530187777       -2.6443603736
 O          3.6544062880       -1.1272613497       -1.3504054552
 C          4.9498810422        0.8973953370       -0.2395900320
 C          5.1990039443        2.2549931104       -0.1853901197
 C          6.1688868527        2.7225325712        0.6869400924
 C          6.8704018963        1.8294975694        1.4835135803
 C          6.6114289315        0.4690475934        1.4137175601
 C          5.6414401304       -0.0052677712        0.5442628837
 H          5.4017146715       -1.0528737065        0.4581852827
 H          7.1585667910       -0.2234641870        2.0329082118
 H          7.6240894049        2.1962112828        2.1623463822
 H          6.3739420019        3.7794470525        0.7432529381
 H          4.6358104021        2.9115641559       -0.8273775582
 H          1.6396874267        1.1628270207       -1.4858226766
 H          3.1817034103        0.5560691335        1.7170484699
 H          2.1636381197       -0.9136067486        3.4250768927
 H          0.0878461769       -2.1429683256        2.9238175653
 H         -1.7388704850       -2.5420040210        1.5553327247
 C         -1.0471901726       -3.3632360646       -0.2820740192
 C          0.2213551938       -3.5613666267       -1.0519647189
 C         -0.0594835023       -4.4051329524        0.1532672387
 H         -0.3072226585       -5.4462966703        0.0130975462
 H          0.5154623068       -4.2014638465        1.0440165425
 H          0.1427190121       -4.0085733390       -2.0317028213
 H          0.9983537997       -2.8143758109       -0.9877566590
 H         -1.9512316371       -3.7252355943       -0.7625132541
