  62
        -98.94308702
 C         -0.3885565997       -2.0898645002        0.2499234721
 C         -1.1125490067       -1.3673364957        1.2272210989
 C         -2.4553933426       -0.9167875078        0.8395354007
 C         -2.9314310664       -1.2443097131       -0.3751509173
 C         -4.2251384214       -0.7565556552       -0.9616574227
 C         -4.0399061060        0.6800914181       -1.4937113176
 C         -4.8540910524        1.7400797109       -0.7504060614
 H         -4.4747976495        2.7143916487       -1.0666983742
 H         -5.8987044535        1.6721093552       -1.0632165589
 C         -4.8150296777        1.6633377257        0.7790618425
 H         -5.1905295351        2.6174142322        1.1552724425
 H         -5.5097900040        0.8960020299        1.1249262460
 C         -3.4367687709        1.3963510240        1.3981188992
 H         -2.6463585429        1.7018662741        0.7094463351
 H         -3.3380284803        2.0151078937        2.2928980258
 C         -3.2071636503       -0.0671770688        1.8253375159
 H         -4.1654213357       -0.5360424780        2.0644417703
 H         -2.5982101866       -0.0791797844        2.7343306944
 H         -2.9787305181        0.9380770106       -1.4429515569
 H         -4.3167939197        0.7158312891       -2.5489805862
 H         -4.4896581618       -1.4306182067       -1.7768891477
 H         -5.0110015051       -0.7898055377       -0.2102296990
 O         -2.2358702429       -2.0041641121       -1.2598436652
 C         -0.9291535470       -2.3938496205       -0.9989431465
 O         -0.3784287061       -2.9999096298       -1.9380100464
 O         -0.6437723345       -1.0876262220        2.3644957542
 C          1.0720729007       -2.4022089455        0.5122828614
 C          1.9433863049       -1.5818897951       -0.4126094102
 C          3.1801341721       -2.0135812251       -0.8768706517
 C          3.9318125156       -1.2070919667       -1.7145288536
 C          3.4795362917        0.0419582910       -2.1009836947
 C          2.2447682042        0.4843339816       -1.6395865964
 C          1.5008494727       -0.3239334106       -0.7964942795
 H          0.5361229074        0.0236511215       -0.4648118439
 N          1.7240401993        1.7267009282       -2.0219038150
 S          0.6531396453        2.5614329087       -1.0526025860
 O         -0.6345586750        1.9130411468       -1.0316232132
 O          0.6703954008        3.9040709817       -1.5940704968
 C          1.3986954152        2.5637827372        0.5668757053
 C          2.6004325102        3.2311456340        0.7108490873
 C          3.2289286759        3.2251485304        1.9444955365
 C          2.6511543151        2.5497524399        3.0096807146
 C          1.4425939560        1.8910632769        2.8512558874
 C          0.8070801950        1.8983591750        1.6194051781
 H         -0.1292516145        1.3837355227        1.4730077821
 H          0.9873025566        1.3546386686        3.6684297127
 H          3.1438581892        2.5375121376        3.9690764120
 H          4.1669760631        3.7410013109        2.0717919868
 H          3.0136659573        3.7524395578       -0.1372534236
 H          2.3498361082        2.3323352286       -2.5297732429
 H          4.0648123571        0.6619603636       -2.7622194158
 H          4.8873059906       -1.5576133431       -2.0739925339
 H          3.5497846744       -2.9849054632       -0.5913377492
 H          1.2622599850       -2.0611651998        1.5419127641
 C          1.3519538297       -3.8882223621        0.4344708177
 C          2.3912658971       -4.5120059118        1.3163828848
 C          0.9378023618       -4.7609761944        1.5803981820
 H          0.5295342214       -5.7366078704        1.3638622338
 H          0.4810813271       -4.2763677456        2.4310607910
 H          2.9835674867       -5.3226927631        0.9194375249
 H          2.9233710328       -3.8666816226        1.9989469202
 H          1.2226727621       -4.2831253939       -0.5665608808
