  62
        -98.94056232
 C         -2.5727759679       -0.2987322729       -0.4611242966
 C         -2.1746425017       -0.9167463888        0.7486273555
 C         -1.4750404355       -2.2020614840        0.6170407263
 C         -1.2331031007       -2.6947067039       -0.6109173452
 C         -0.3925901402       -3.9029080887       -0.9114291132
 C          1.0990908856       -3.5244681955       -0.7979107064
 C          1.8461798516       -4.2392537333        0.3282769736
 H          2.0338834171       -5.2733224288        0.0300148364
 H          2.8127928520       -3.7434052473        0.4384636630
 C          1.1388763798       -4.2614760611        1.6869096082
 H          0.3824252497       -5.0481678767        1.6928831558
 H          1.8875824310       -4.5428880543        2.4305260841
 C          0.4812741924       -2.9461890427        2.1246075378
 H          0.9479206349       -2.0916509880        1.6337194298
 H          0.6405464789       -2.8262859783        3.1985374815
 C         -1.0393381444       -2.8818498904        1.8849209135
 H         -1.4642185503       -3.8889657549        1.9267241895
 H         -1.4937333721       -2.2940787179        2.6879110949
 H          1.6036269722       -3.7443770431       -1.7407687550
 H          1.1692495777       -2.4432309991       -0.6520438133
 H         -0.6392583636       -4.7074959671       -0.2221202447
 H         -0.6285239159       -4.2238155730       -1.9264400002
 O         -1.6580238676       -2.0870606956       -1.7506561042
 C         -2.3124505597       -0.8675654644       -1.7055954439
 O         -2.6146719283       -0.4018717814       -2.8254984218
 O         -2.3886034921       -0.4158842214        1.8845173502
 C         -3.1701201054        1.0980174824       -0.4321827213
 C         -2.1573547569        2.0225246499        0.2028949332
 C         -2.4640660615        2.9559802762        1.1835169711
 C         -1.4600130689        3.7134505722        1.7634641310
 C         -0.1379093957        3.5438298432        1.3967451391
 C          0.1757002679        2.6273854750        0.3983994596
 C         -0.8351429673        1.9018135860       -0.2068527209
 H         -0.5803337655        1.1962239856       -0.9857280835
 N          1.5038750532        2.4253857734       -0.0181384070
 S          1.9373746631        0.8656989768       -0.5060152276
 O          1.6173860671        0.7137200998       -1.9044700384
 O          1.3844974995       -0.1198125401        0.3929855667
 C          3.7077698630        0.9458113201       -0.3076819562
 C          4.4562280675        1.5877385409       -1.2763314612
 C          5.8294163660        1.6760561452       -1.1120520132
 C          6.4279784803        1.1240517049        0.0110760148
 C          5.6642117947        0.4810662998        0.9734225883
 C          4.2898481820        0.3910184619        0.8161827363
 H          3.6555850492       -0.1045185230        1.5338791681
 H          6.1318643062        0.0497043707        1.8437043642
 H          7.4970400120        1.1929928294        0.1355662972
 H          6.4266813766        2.1726453171       -1.8595403677
 H          3.9472027580        1.9905195097       -2.1364482521
 H          2.1803591059        2.8163031470        0.6236655288
 H          0.6453371256        4.1111951804        1.8759369390
 H         -1.7096916816        4.4301791650        2.5311135550
 H         -3.4849962384        3.0777585705        1.5064981681
 H         -3.3010925816        1.3961984052       -1.4832931929
 C         -4.5189564441        1.1062822378        0.2539934817
 C         -5.5488030081        2.1282188732       -0.1211375980
 C         -5.7295697072        0.6976437262       -0.5282462091
 H         -6.4881889640        0.1099545511       -0.0337647205
 H         -5.5814438073        0.4352810031       -1.5659803177
 H         -6.1894428442        2.5228988270        0.6528842623
 H         -5.2879477000        2.8424073016       -0.8875413460
 H         -4.4597081292        0.7888566418        1.2884235984
