  62
        -98.94072524
 C         -2.6528940581       -1.2228835428       -0.3485485457
 C         -2.2238779201       -0.0404555336       -0.9988498656
 C         -3.1967018714        1.0622136971       -1.0283921037
 C         -4.4078221046        0.8922532682       -0.4680788321
 C         -5.4708967016        1.9479412199       -0.3816149600
 C         -5.3546657254        2.7456956511        0.9247039479
 C         -3.9407682088        3.2479461132        1.2183612376
 H         -3.9856022968        3.8227062495        2.1460645464
 H         -3.2868432870        2.3922907585        1.4045112115
 C         -3.3322514099        4.1166139570        0.1086050537
 H         -4.1216271495        4.4862810933       -0.5469850463
 H         -2.8564948253        4.9862176066        0.5668473401
 C         -2.2622772550        3.4170497440       -0.7320504796
 H         -1.5140291216        2.9656598566       -0.0741312043
 H         -1.7520280643        4.1764821214       -1.3308429787
 C         -2.7720894942        2.3391502132       -1.6972770383
 H         -3.5825353830        2.7445853846       -2.3063555047
 H         -1.9441925948        2.0695147961       -2.3594017720
 H         -6.0399967190        3.5936461348        0.8739842611
 H         -5.6676889451        2.1041297901        1.7516196358
 H         -5.3837329835        2.6154454924       -1.2365171933
 H         -6.4453340595        1.4576903672       -0.4116361952
 O         -4.7880511889       -0.2626552799        0.1353774781
 C         -3.9185024557       -1.3350518711        0.2308131428
 O         -4.3825817481       -2.3197166574        0.8398760461
 H          0.8621711872       -1.7440787903       -0.8795024842
 C          0.6736670813       -1.6762996186        0.1800293985
 C         -0.5746530934       -2.0073909891        0.6798364715
 C         -0.8001042727       -1.8839466876        2.0485181365
 C          0.2014626321       -1.4417248372        2.8913318763
 C          1.4473654344       -1.1076273254        2.3881811278
 C          1.6785397662       -1.2185914523        1.0244018523
 N          2.9427086722       -0.8887772529        0.4966798567
 S          3.6621371650        0.5367325166        1.0501188110
 O          4.2499534692        0.2774931498        2.3413728900
 O          2.7214327277        1.6338542258        0.9965765358
 C          4.9489020487        0.7503329909       -0.1636215698
 C          6.1629671132        0.1199294667        0.0316614233
 C          7.1523572301        0.2610213477       -0.9283342571
 C          6.9121336191        1.0244652658       -2.0610573699
 C          5.6885345920        1.6516126750       -2.2427367120
 C          4.6940198934        1.5135962765       -1.2871616373
 H          3.7305722260        1.9890725017       -1.3839860132
 H          5.5047976727        2.2460892550       -3.1232810211
 H          7.6837143171        1.1339516004       -2.8066880020
 H          8.1055433364       -0.2232701716       -0.7904536235
 H          6.3059783570       -0.4555301407        0.9311743668
 H          2.9289522508       -0.8957504640       -0.5149759111
 H          2.2325821255       -0.7454272559        3.0318303062
 H          0.0122388304       -1.3499744114        3.9506457890
 H         -1.7794963500       -2.1265271356        2.4388531332
 C         -1.7230393493       -2.4182236923       -0.2093730475
 H         -2.3007366121       -3.1903395542        0.3161473840
 C         -1.3021832690       -2.9585263752       -1.5594360479
 C         -0.6981751239       -4.3269491376       -1.6479771779
 C         -2.0814621040       -4.0827118439       -2.1697798533
 H         -2.2377800358       -4.0795212747       -3.2380998582
 H         -2.9180805689       -4.4722420196       -1.6082557382
 H         -0.5937065683       -4.8839319367       -0.7291905358
 H          0.0961176188       -4.4965935818       -2.3586977815
 H         -0.9330779817       -2.1929385807       -2.2305677346
 O         -1.0934222544        0.0955651229       -1.5368705005
