  62
        -98.93677654
 C         -1.7899166951       -0.9609878404        0.1971354633
 C         -3.1362394089       -1.3363839132        0.4276459950
 C         -4.1015548501       -0.2442754831        0.6420434323
 C         -3.6565543193        1.0238519898        0.6563789568
 C         -4.4712878509        2.2793706006        0.7991177454
 C         -4.8435894065        2.8424422095       -0.5830390382
 C         -6.1282976610        2.2747441808       -1.1851919139
 H         -6.9858649333        2.6595579590       -0.6292833316
 H         -6.2034540774        2.6542031111       -2.2069170845
 C         -6.2161369291        0.7466253096       -1.2217049194
 H         -5.2595618979        0.3303921144       -1.5435325106
 H         -6.9561449982        0.4721090731       -1.9760654137
 C         -6.6285592929        0.1323575405        0.1244514205
 H         -7.4634319898       -0.5537086724       -0.0326658335
 H         -6.9974197812        0.9228700815        0.7778121404
 C         -5.5314646136       -0.6644216590        0.8464812665
 H         -5.7437129122       -0.6706034156        1.9208955706
 H         -5.5632653599       -1.7080652445        0.5178172382
 H         -4.9589277290        3.9251323021       -0.5015293393
 H         -4.0056342301        2.6535103874       -1.2591983076
 H         -5.3562917058        2.0990371437        1.4019653966
 H         -3.8373247072        3.0057747915        1.3116893170
 O         -2.3446498240        1.3391457688        0.4844380194
 C         -1.3806368505        0.3711784064        0.2482204509
 O         -0.2314335446        0.8285419694        0.1150030768
 O         -3.5181656069       -2.5373485554        0.4519787353
 C         -0.7811384365       -2.0658854432       -0.0557982544
 C          0.4638012310       -1.8489750582        0.7677827795
 C          0.3467805037       -1.8159083422        2.1556982578
 C          1.4567472428       -1.6252511814        2.9542082416
 C          2.7093453768       -1.4678699953        2.3864531400
 C          2.8399338568       -1.5055082146        1.0037398464
 C          1.7204338586       -1.6986664368        0.2033758960
 H          1.8482372326       -1.7018808760       -0.8655872946
 N          4.1097967212       -1.4017818394        0.4115084156
 S          4.4422752570       -0.4063490586       -0.8887137168
 O          3.5622164882       -0.7115704818       -1.9863830916
 O          5.8555037948       -0.6007702718       -1.1324862925
 C          4.1786108738        1.2570985114       -0.2994901383
 C          2.8919483089        1.7037629845       -0.0755503490
 C          2.7114278086        2.9860496054        0.4207907013
 C          3.8067759479        3.7941602271        0.6815673779
 C          5.0928027884        3.3282561996        0.4514465468
 C          5.2825206170        2.0470955425       -0.0393863413
 H          6.2627382267        1.6431630444       -0.2349275814
 H          5.9446071473        3.9573950841        0.6541736281
 H          3.6564412802        4.7909853134        1.0656393523
 H          1.7057409824        3.3323778426        0.5992093859
 H          2.0436066268        1.0693602802       -0.2765824341
 H          4.8683523407       -1.3476407533        1.0762931629
 H          3.5790388033       -1.3211531139        3.0089371227
 H          1.3485298253       -1.5971070284        4.0280629933
 H         -0.6327640660       -1.9363883653        2.5989017614
 H         -1.2755189321       -2.9789695589        0.3174991560
 C         -0.4850919299       -2.3056792266       -1.5287448863
 C         -1.5017460063       -2.0086940501       -2.5889542887
 C         -0.2564861672       -1.1818514962       -2.4926589741
 H          0.5104002527       -1.2994665469       -3.2447628274
 H         -0.3345682186       -0.1747359389       -2.1139667594
 H         -1.6014357776       -2.7002431176       -3.4120285954
 H         -2.4354864548       -1.5628445281       -2.2778783243
 H          0.1133462523       -3.1994321879       -1.6802955854
