  62
        -98.94310212
 C         -2.5580099014       -0.1833936869        0.5349048613
 C         -2.2053539298        0.3574117228       -0.7271014423
 C         -1.9933368761        1.8128984117       -0.7661984462
 C         -2.0974158475        2.5289025852        0.3666352018
 C         -1.8801709778        4.0102709894        0.4756270469
 C         -0.4250442216        4.3451571627        0.8277324883
 C          0.6069061163        3.6494763935       -0.0604165948
 H          1.5919176811        4.0127786438        0.2430521156
 H          0.5942341202        2.5742836236        0.1368360537
 C          0.4157950023        3.8845268605       -1.5653148450
 H          1.3906707987        4.0942321663       -2.0101367737
 H         -0.2126947113        4.7613601685       -1.7293054719
 C         -0.1678143165        2.6860217913       -2.3164758622
 H         -0.0180223506        2.8466817815       -3.3878247127
 H          0.3793636848        1.7833311140       -2.0339975279
 C         -1.6638876644        2.4267991127       -2.0975317349
 H         -2.2263166357        3.3519882661       -2.2451135238
 H         -1.9885602796        1.7015683893       -2.8495532986
 H         -0.2404054361        4.0457862904        1.8623496420
 H         -0.2962653726        5.4273282597        0.7576020855
 H         -2.1536107461        4.4798806960       -0.4674433475
 H         -2.5309909467        4.3926751456        1.2643451274
 O         -2.3938426450        1.9698447534        1.5693593970
 C         -2.6074402323        0.6065837145        1.6846877260
 O         -2.8373704964        0.2235790588        2.8512175514
 H         -0.1950298398       -1.2418537734        1.1371499847
 C         -0.3375120794       -2.0319379598        0.4122355203
 C         -1.6274306447       -2.4180361105        0.0691437195
 C         -1.7907709677       -3.4384863343       -0.8573298278
 C         -0.6846333258       -4.0327858062       -1.4408489008
 C          0.5955852265       -3.6145136274       -1.1295208931
 C          0.7686683401       -2.6000344918       -0.1940805461
 N          2.0532587987       -2.1459737031        0.1613655705
 S          2.2159129638       -0.4879481430        0.4548452302
 O          1.8481601075       -0.2211643689        1.8248037795
 O          1.5227151389        0.2713408897       -0.5580929453
 C          3.9797228834       -0.2982514175        0.2724650213
 C          4.7998626595       -0.8048204505        1.2633486501
 C          6.1731145456       -0.6870724116        1.1210871966
 C          6.7005806793       -0.0671717868       -0.0024019681
 C          5.8649738110        0.4390337008       -0.9862869780
 C          4.4900131076        0.3222871335       -0.8514390780
 H          3.8001583213        0.7037670482       -1.5871394684
 H          6.2771053760        0.9235121669       -1.8566938785
 H          7.7698037882        0.0241376467       -0.1101498936
 H          6.8256794455       -1.0771635200        1.8853507042
 H          4.3433823323       -1.2683065197        2.1223824446
 H          2.7674220329       -2.4730624627       -0.4759662643
 H          1.4541195856       -4.0612614338       -1.6078249594
 H         -0.8237932436       -4.8199426379       -2.1664932406
 H         -2.7816612004       -3.7486566737       -1.1457782289
 C         -2.7620200497       -1.6772246260        0.7337032197
 H         -2.6645257216       -1.8296560053        1.8224177277
 C         -4.1410296427       -2.1901679180        0.3479590676
 C         -5.3310969018       -1.2786249007        0.3497314824
 C         -4.8046633780       -1.8208919189       -0.9432836035
 H         -5.3851744076       -2.5759158264       -1.4531977334
 H         -4.2712001433       -1.1565300421       -1.6037227041
 H         -6.2677193607       -1.6598592019        0.7281241101
 H         -5.1598232919       -0.2358885092        0.5761650568
 H         -4.3121912799       -3.1984034143        0.7129715749
 O         -2.0907335642       -0.3254333994       -1.7775496256
