  62
        -98.93356559
 C         -2.0161082928       -1.5148489992        0.4732947903
 C         -2.0603448354       -0.2847052323        1.1773759164
 C         -3.1994700235        0.6035213219        0.8989546975
 C         -4.1279030050        0.2167851642        0.0077315292
 C         -5.3948852750        0.9267984989       -0.3998720484
 C         -5.3160882857        2.4416874474       -0.6319434682
 C         -3.9816599040        2.9410389302       -1.2046656201
 H         -3.3794900697        2.0956934914       -1.5421356603
 H         -4.1825535381        3.5665730546       -2.0763855354
 C         -3.1765661204        3.7731282514       -0.2039507086
 H         -2.4606957503        4.3863053778       -0.7563793128
 H         -3.8568940133        4.4529951134        0.3136601425
 C         -2.3870117382        2.9706918774        0.8293448562
 H         -1.5613309012        2.4474078994        0.3399492817
 H         -1.9504127145        3.6776717907        1.5390004721
 C         -3.1958407634        1.9242643043        1.6134440988
 H         -4.2047235824        2.2745828632        1.8179267882
 H         -2.6884653371        1.7497313680        2.5661360865
 H         -6.1257599073        2.6972789936       -1.3177292141
 H         -5.5205858376        2.9646759961        0.3012829810
 H         -5.7138953461        0.4317546199       -1.3203481191
 H         -6.1578008702        0.7199860429        0.3565272551
 O         -4.0408140256       -0.9676049495       -0.6578941989
 C         -2.9841070451       -1.8521740782       -0.4718201869
 O         -3.0492848021       -2.8618362306       -1.1952978066
 O         -1.1852885765        0.0482071114        2.0205511911
 C         -0.8265203158       -2.4090032329        0.7730544707
 C          0.3658031866       -1.9518612151       -0.0282339850
 C          0.2679848989       -1.7310246800       -1.3983254711
 C          1.3625889450       -1.2848792943       -2.1164265399
 C          2.5699486861       -1.0415371878       -1.4846080986
 C          2.6743249527       -1.2491758149       -0.1157217442
 C          1.5757455317       -1.7051117767        0.6020118505
 H          1.6581622673       -1.8511765825        1.6702319388
 N          3.8915652078       -0.9840211960        0.5341019063
 S          4.6558651926        0.4632245975        0.1764642666
 O          5.3851202333        0.3308102368       -1.0598425628
 O          5.4487362399        0.7692528838        1.3458068331
 C          3.3374997455        1.6491550366       -0.0203827754
 C          2.4770219049        1.8482496885        1.0410424089
 C          1.4286603695        2.7412626308        0.8972565996
 C          1.2612949106        3.4195907944       -0.3003842769
 C          2.1361596427        3.2128761575       -1.3555156450
 C          3.1837335992        2.3161385961       -1.2183813038
 H          3.8828142786        2.1209937955       -2.0153242960
 H          2.0020614885        3.7428719682       -2.2848079074
 H          0.4421151152        4.1131013907       -0.4089434104
 H          0.7401978733        2.8893933615        1.7135634227
 H          2.6299492510        1.3116534626        1.9634356460
 H          3.8653580696       -1.1399277268        1.5313434917
 H          3.4312312386       -0.6927354317       -2.0308213399
 H          1.2751978478       -1.1214458388       -3.1798348123
 H         -0.6764020033       -1.9129244275       -1.8907683088
 H         -0.5944510124       -2.2242556564        1.8345712569
 C         -1.1087895029       -3.8958301708        0.6276281914
 C         -0.5579406427       -4.7380229132       -0.4794197231
 C         -0.0229833872       -4.8918248515        0.9108462039
 H         -0.2695679992       -5.7830489245        1.4676639946
 H          0.9667647720       -4.5069515623        1.1070740107
 H         -1.1957230024       -5.5091189944       -0.8833146606
 H          0.0714941371       -4.2664758983       -1.2176024883
 H         -2.1050261940       -4.1532349611        0.9713241099
