  62
        -98.94132445
 C         -2.4866830012       -1.3334456450        0.0147903424
 C         -3.1564334063       -0.6024070699        1.0312214104
 C         -3.9472932128        0.5516100432        0.5934503542
 C         -4.0098642994        0.8562904058       -0.7149863716
 C         -4.7898254827        1.9880586362       -1.3266964309
 C         -4.0585222781        3.3371297319       -1.2951735274
 C         -3.9692807283        3.9964914195        0.0816959656
 H         -3.6366185686        5.0241820741       -0.0770283648
 H         -4.9633914747        4.0402746492        0.5276869670
 C         -2.9974671626        3.3099168979        1.0519499299
 H         -2.3172374762        2.6614724571        0.4933028937
 H         -2.3781285643        4.0647426780        1.5420747786
 C         -3.6716925169        2.4922182716        2.1540439128
 H         -2.8894704545        2.0181385582        2.7524300384
 H         -4.2401511602        3.1579806365        2.8072372186
 C         -4.6104136337        1.3919785197        1.6423352370
 H         -5.5283122113        1.8316275755        1.2527655595
 H         -4.8612694521        0.7384303272        2.4813256866
 H         -3.0517586348        3.2000748577       -1.6978831853
 H         -4.5945583670        4.0139750541       -1.9645741957
 H         -4.9663593213        1.7162996625       -2.3696732658
 H         -5.7525884688        2.0832459193       -0.8237900533
 O         -3.3623645424        0.1289505763       -1.6615766926
 C         -2.5673598742       -0.9617366244       -1.3271321925
 O         -2.0150291243       -1.4894257656       -2.3122027585
 O         -3.1035207151       -0.9127513036        2.2508294385
 C         -1.6571689844       -2.5224982987        0.4711997801
 C         -0.2258563289       -2.1015629361        0.6852959128
 C          0.4004228105       -2.2679439695        1.9142228227
 C          1.7016857996       -1.8353114172        2.1055790818
 C          2.4024252163       -1.2293748091        1.0781609086
 C          1.7831702880       -1.0548036868       -0.1527273597
 C          0.4820810305       -1.4924036857       -0.3427529599
 H          0.0031783096       -1.3498147006       -1.3009957659
 N          2.4860649176       -0.4245309809       -1.2027679103
 S          2.9091811248        1.1807662360       -0.9170803422
 O          1.9811563796        1.8141029255       -0.0068391689
 O          3.0428403865        1.7854389751       -2.2245695628
 C          4.5184077715        1.0575901072       -0.1657175040
 C          4.7258797003        1.5500540034        1.1076945602
 C          5.9880796083        1.4393852900        1.6705896591
 C          7.0136194086        0.8418163236        0.9538781074
 C          6.7889126950        0.3541673427       -0.3251785917
 C          5.5301144548        0.4625773293       -0.8941483076
 H          5.3123931565        0.1020876622       -1.8856121067
 H          7.5889487430       -0.1096846773       -0.8792561058
 H          7.9941171843        0.7558565813        1.3948819877
 H          6.1646496424        1.8179163909        2.6645630197
 H          3.8959350565        2.0008075996        1.6281331782
 H          1.9949751376       -0.4852837163       -2.0847998978
 H          3.4147181525       -0.8879900749        1.2212294856
 H          2.1744400883       -1.9686588794        3.0665138012
 H         -0.1470648220       -2.7213423235        2.7274884075
 H         -2.0743110747       -2.7863471745        1.4557830167
 C         -1.8062788725       -3.7417926708       -0.4286241651
 C         -0.6875886870       -4.3280787862       -1.2322357771
 C         -1.1903251304       -5.0472683033       -0.0190751987
 H         -1.7609289501       -5.9540495832       -0.1493911043
 H         -0.5609461350       -5.0409891328        0.8581303929
 H         -0.9291515077       -4.7190491493       -2.2089712545
 H          0.2830735242       -3.8607343169       -1.1809517564
 H         -2.7918795895       -3.7904677145       -0.8804349221
