  62
        -98.94340783
 C         -2.2838168116       -0.6116496242        0.0553187487
 C         -3.1680641020       -0.1988493233        1.0886879405
 C         -4.0978956322        0.8889211357        0.7637826137
 C         -4.0575809445        1.4392004175       -0.4629322130
 C         -4.9789862570        2.5176872315       -0.9523450171
 C         -6.2237076108        1.9226064667       -1.6256143953
 C         -6.9109306828        0.8336560867       -0.8016957905
 H         -7.7916140047        0.5103571509       -1.3608893180
 H         -6.2449834877       -0.0289743571       -0.7251796969
 C         -7.3327976481        1.2740720712        0.6070565695
 H         -8.3480107787        0.9185214773        0.7954293905
 H         -7.3555285076        2.3629407841        0.6635531412
 C         -6.4530447786        0.7266772262        1.7325951462
 H         -6.9610486768        0.9132705071        2.6824362854
 H         -6.3506912149       -0.3559963796        1.6239070691
 C         -5.0490119061        1.3353447733        1.8382520605
 H         -5.1210144979        2.4246125861        1.8597370545
 H         -4.6115924999        1.0004756369        2.7832184861
 H         -5.9258687768        1.4901127941       -2.5836556136
 H         -6.9290808573        2.7318308362       -1.8230956526
 H         -5.2721061576        3.1450719063       -0.1127991368
 H         -4.4399382568        3.1272141048       -1.6795710515
 O         -3.1888425732        1.0334974321       -1.4211084403
 C         -2.2888666654        0.0012427962       -1.1974513366
 O         -1.5727502931       -0.2466292722       -2.1900086473
 H          0.3846486563       -0.4007792083       -1.1964942940
 C          0.8086747565       -0.6039506919       -0.2240916873
 C          0.0485767270       -1.2774642707        0.7215540927
 C          0.6095564713       -1.5262592359        1.9686700441
 C          1.8973878285       -1.1102287955        2.2579907122
 C          2.6494124800       -0.4348545956        1.3136994058
 C          2.0970519776       -0.1781689938        0.0655972047
 N          2.8430357837        0.5296501313       -0.8948597179
 S          4.3709892131       -0.0513501370       -1.2809648157
 O          4.6475316279        0.4520092717       -2.6086595366
 O          4.4529382300       -1.4834978570       -1.1070331399
 C          5.4452739565        0.7637573029       -0.1176979402
 C          5.4192284400        2.1436037080       -0.0620725418
 C          6.2556076429        2.7928071891        0.8319224158
 C          7.1015545838        2.0559755783        1.6477268648
 C          7.1191046933        0.6714866836        1.5765680903
 C          6.2837191044        0.0157180650        0.6854970967
 H          6.2576962125       -1.0588107701        0.5993732633
 H          7.7779373834        0.1005981664        2.2109496674
 H          7.7511556493        2.5643151366        2.3426755920
 H          6.2447783644        3.8693319891        0.8900835279
 H          4.7498030292        2.6783159273       -0.7152666857
 H          2.3187778704        0.7242081074       -1.7364116713
 H          3.6518987919       -0.1059069790        1.5338395544
 H          2.3199117418       -1.3113409559        3.2305049764
 H          0.0245854951       -2.0417155020        2.7163189852
 C         -1.3447961096       -1.7583580196        0.3909361099
 H         -1.7636502113       -2.2096810738        1.3005213836
 C         -1.2906503213       -2.8236192838       -0.6878677656
 C         -0.8627529117       -4.2110141057       -0.3188121197
 C         -2.2929453876       -3.9366436927       -0.6732956512
 H         -2.6726742814       -4.2998155378       -1.6165047078
 H         -3.0242967002       -3.9394935525        0.1218521610
 H         -0.6252764992       -4.4021923299        0.7166666886
 H         -0.2544006524       -4.7642974881       -1.0177900079
 H         -0.9849903093       -2.4433421928       -1.6541870792
 O         -3.1806053248       -0.7259690029        2.2326404065
