  62
        -98.94366508
 C          1.7932341491        0.3703151477       -0.3061222113
 C          2.9685127427        0.7179435847       -1.0128862881
 C          4.2215125221        0.6458435480       -0.2496952098
 C          4.1812875053        0.2878103247        1.0470310985
 C          5.3852963350        0.1294072274        1.9289468632
 C          5.9137921595       -1.3114105787        1.8948291650
 C          6.0916180398       -1.8705080634        0.4832290120
 H          6.4970756767       -2.8798099275        0.5817084213
 H          5.1113224893       -1.9625337144        0.0102363476
 C          7.0117252746       -1.0360370585       -0.4186786925
 H          7.6248993539       -0.3711397612        0.1907200756
 H          7.6903904937       -1.7097898102       -0.9460130843
 C          6.2817268584       -0.2163564719       -1.4843609993
 H          7.0245324036        0.1562648896       -2.1948435013
 H          5.5958295205       -0.8627307538       -2.0377596323
 C          5.4932083235        0.9949737975       -0.9706235323
 H          5.1915783946        1.5873918543       -1.8395916285
 H          6.1370366662        1.6129953170       -0.3413438053
 H          6.8684776897       -1.3413549088        2.4231465391
 H          5.2084777582       -1.9512048823        2.4299907343
 H          5.0967316421        0.3772345471        2.9517935165
 H          6.1611162799        0.8197401186        1.6035281127
 O          3.0300063394       -0.0186790888        1.6973611899
 C          1.8083197949        0.0056114601        1.0403349231
 O          0.8355390058       -0.3081991202        1.7506922292
 O          2.9684106420        1.0780082266       -2.2215009580
 C          0.4601116328        0.4113275212       -1.0298173877
 C         -0.4823562103        1.3662374201       -0.3402594528
 C         -0.0198044658        2.6298291676        0.0201105064
 C         -0.8481835352        3.5288989646        0.6615881024
 C         -2.1608031568        3.1940854391        0.9456995700
 C         -2.6371314930        1.9420531942        0.5792822488
 C         -1.7989643131        1.0378695381       -0.0601673485
 H         -2.1881678955        0.0734731829       -0.3388544863
 N         -3.9541774694        1.5649868116        0.8725340440
 S         -4.8261657714        0.6048060463       -0.1788818392
 O         -4.5201280150        0.9058992147       -1.5579629086
 O         -6.2055097241        0.7968209927        0.2169685517
 C         -4.3440978044       -1.0652672577        0.2066372779
 C         -4.2821913619       -1.9906118390       -0.8165733972
 C         -3.9443531635       -3.3011672605       -0.5174411724
 C         -3.6763376936       -3.6617691290        0.7939052403
 C         -3.7467398531       -2.7213157392        1.8103245472
 C         -4.0876692573       -1.4103012794        1.5185424173
 H         -4.1442576966       -0.6552367483        2.2845898555
 H         -3.5334471265       -3.0041653042        2.8286396890
 H         -3.4088754267       -4.6809242068        1.0247695028
 H         -3.8890015010       -4.0342275660       -1.3067080622
 H         -4.4874960175       -1.6634071070       -1.8236485577
 H         -4.5243828341        2.2779008546        1.3025997661
 H         -2.8089514905        3.8946714722        1.4498715601
 H         -0.4719624803        4.5017906829        0.9405893041
 H          1.0045747958        2.8947642223       -0.2044729789
 H          0.6810217720        0.8146679874       -2.0298203587
 C         -0.0965669834       -0.9888069501       -1.1822783208
 C         -0.9868354326       -1.3294551782       -2.3385475191
 C          0.4160350674       -1.8537754897       -2.2931887804
 H          0.5679956457       -2.9050422647       -2.1006075337
 H          1.1473830773       -1.4212267307       -2.9604085393
 H         -1.7980080538       -2.0220989882       -2.1733733242
 H         -1.2178503819       -0.5431920941       -3.0415700519
 H         -0.2940750623       -1.4637311377       -0.2273936087
