  62
        -98.94486654
 C          1.2456505268        1.3596433880       -0.1044373813
 C          1.3983030489       -0.0370254552       -0.2936214940
 C          2.5861402076       -0.6391481316        0.3299983557
 C          3.4330067754        0.1172944384        1.0486866586
 C          4.6675636187       -0.3629098618        1.7626642620
 C          5.9051376671       -0.4834722473        0.8625230227
 C          5.8854285548       -1.6534161649       -0.1223681893
 H          6.8958966727       -1.7493874511       -0.5247142341
 H          5.6605541472       -2.5750748621        0.4153961999
 C          4.9034881914       -1.4830321886       -1.2899584448
 H          4.6142857558       -0.4328892104       -1.3712903259
 H          5.3995789072       -1.7529364149       -2.2249096043
 C          3.6390033822       -2.3358914575       -1.1844544794
 H          2.9963221893       -2.1042717412       -2.0372732579
 H          3.9042669199       -3.3941973424       -1.2380878126
 C          2.8291701876       -2.0996445811        0.0965669780
 H          3.3390120622       -2.5412232372        0.9529955183
 H          1.8546165491       -2.5833545483       -0.0104936650
 H          6.0293179068        0.4528300799        0.3136624984
 H          6.7718610467       -0.6025183607        1.5169011278
 H          4.4644975257       -1.3237042498        2.2373095646
 H          4.8792738182        0.3710072818        2.5434533673
 O          3.2424883998        1.4518049849        1.2267499200
 C          2.1607748799        2.0977637339        0.6517915735
 O          2.1241108120        3.3248822589        0.8791852581
 O          0.6043334330       -0.7667165628       -0.9416773852
 C          0.0874734668        2.1644976050       -0.6691935267
 C         -1.1187340931        2.1345495054        0.2394104270
 C         -1.8355118275        3.2953363560        0.5071200883
 C         -2.9699104369        3.2539651193        1.2974558321
 C         -3.4204106877        2.0551701165        1.8199119273
 C         -2.7069322660        0.8890779061        1.5622533282
 C         -1.5601663387        0.9373271607        0.7822075884
 H         -1.0078829423        0.0293511143        0.6041750079
 N         -3.1386326236       -0.3365504972        2.0773816082
 S         -2.6560367950       -1.7969823070        1.4382440794
 O         -3.6680084399       -2.7254058617        1.9048528976
 O         -1.3079985601       -2.1003067868        1.8508173318
 C         -2.7613765766       -1.6604861301       -0.3378106114
 C         -1.8641655598       -2.3792883714       -1.0994940492
 C         -1.9398772755       -2.2996139261       -2.4805198998
 C         -2.9068053084       -1.5039424689       -3.0731593827
 C         -3.8088769197       -0.7960019413       -2.2940018689
 C         -3.7417429162       -0.8762270593       -0.9127671944
 H         -4.4313503596       -0.3309304497       -0.2893736461
 H         -4.5604229245       -0.1770253026       -2.7571445602
 H         -2.9555685993       -1.4334462578       -4.1485964892
 H         -1.2333909277       -2.8469796659       -3.0834409927
 H         -1.1095627913       -2.9654729044       -0.6012967725
 H         -4.0644641718       -0.3579054002        2.4758014503
 H         -4.3096858317        2.0189078225        2.4300239277
 H         -3.5143266826        4.1626806441        1.5038783859
 H         -1.4900761336        4.2350801270        0.1031889161
 H          0.4420161588        3.2033946410       -0.7214608816
 C         -0.3372054855        1.7285962414       -2.0601734440
 C         -0.9927165560        2.7196619546       -2.9718165158
 C          0.4016416660        2.2481683961       -3.2546501561
 H          0.5673891370        1.5802670909       -4.0862042475
 H          1.2180790197        2.9335442762       -3.0769437607
 H         -1.7904085406        2.3767417335       -3.6119326223
 H         -1.1195368990        3.7290470902       -2.6114313509
 H         -0.6846883759        0.7041951707       -2.0951446194
