  62
        -98.93707680
 C         -2.5437649712       -0.0411323010       -0.1610271352
 C         -2.2893013546       -1.1401440665       -1.0160081788
 C         -1.7066986343       -2.3483488934       -0.4080337098
 C         -1.4502411956       -2.3595517612        0.9129886712
 C         -0.8900437143       -3.4373240163        1.8183923988
 C         -0.2844022627       -4.7083520134        1.2310945455
 C          1.0486341656       -4.4998063727        0.5102485739
 H          1.3102369575       -5.4250144216       -0.0077293365
 H          1.8186633251       -4.3071131865        1.2613526878
 C          1.0913975146       -3.3436502781       -0.4863850429
 H          2.1114187962       -3.2687072153       -0.8755423470
 H          0.8869246847       -2.3988484205        0.0234128144
 C          0.1562168940       -3.4724833981       -1.6868313177
 H          0.3799482777       -4.3921441724       -2.2325169182
 H          0.3663677708       -2.6260290857       -2.3479472059
 C         -1.3456365469       -3.4499964015       -1.3626763605
 H         -1.6837819239       -4.4157475021       -0.9952305321
 H         -1.8872035260       -3.2412182682       -2.2904117464
 H         -1.0037443736       -5.1988807662        0.5817865777
 H         -0.1023001180       -5.3852788532        2.0702007693
 H         -0.1420744387       -2.9368949584        2.4419510711
 H         -1.7123279375       -3.7182982359        2.4859467771
 O         -1.7404200197       -1.2879087875        1.7049234359
 C         -2.2040827441       -0.0889446087        1.1916255802
 O         -2.2884722688        0.8188127243        2.0403461421
 H         -0.3720158674        1.0221480160       -1.1747492309
 C         -0.5941627782        1.9577743035       -0.6806227715
 C         -1.9176214265        2.2998178424       -0.4307092186
 C         -2.1836721927        3.5117507675        0.1895391967
 C         -1.1403140160        4.3357897168        0.5789822412
 C          0.1763112124        3.9599889492        0.3869625097
 C          0.4505390444        2.7523368481       -0.2467378098
 N          1.7698084784        2.3113170588       -0.4607210348
 S          2.0335779647        0.6402844990       -0.3608399903
 O          1.7680548702        0.0588730653       -1.6530124366
 O          1.3194128073        0.0807785155        0.7640851230
 C          3.7898000261        0.6115627905       -0.0502442868
 C          4.2424873271        0.5642484731        1.2547528359
 C          5.6080751187        0.5762355504        1.4920845397
 C          6.4929550940        0.6384732257        0.4259813970
 C          6.0238288311        0.6841345117       -0.8784732531
 C          4.6596106096        0.6712133998       -1.1224650302
 H          4.2465054512        0.6958784950       -2.1173191498
 H          6.7146044028        0.7293094113       -1.7048190546
 H          7.5549791287        0.6482123637        0.6134751573
 H          5.9749554651        0.5366204630        2.5050537875
 H          3.5162861620        0.5072025748        2.0502353260
 H          2.4470032592        2.8261439142        0.0859834313
 H          0.9850748121        4.5873983713        0.7298419869
 H         -1.3573538878        5.2732693221        1.0684634425
 H         -3.2020382650        3.7959352766        0.3986742106
 C         -2.9567976778        1.2729374639       -0.8067656335
 H         -2.8627569964        1.0781128082       -1.8891750305
 C         -4.3912617965        1.7143991746       -0.5744041364
 C         -5.4609622783        0.7126175323       -0.2595018731
 C         -5.0404585608        1.7100101931        0.7757881606
 H         -5.7217534174        2.5140402956        1.0138637532
 H         -4.4508401645        1.3707651110        1.6118744496
 H         -5.1537194630       -0.3153103634       -0.1295922733
 H         -6.4274860328        0.8263344670       -0.7270940046
 H         -4.6745479897        2.5216047415       -1.2436045361
 O         -2.5325416231       -1.1112240515       -2.2545344296
