  62
        -98.93035781
 C         -2.3656879585       -0.7997548903        0.2554663804
 C         -3.6470790785       -0.9035659302        0.8491442704
 C         -4.8044542885       -0.4674108705        0.0442514202
 C         -4.5818843284        0.0293250892       -1.1864162799
 C         -5.5868485484        0.5794577489       -2.1627480901
 C         -6.0665461385        1.9905111490       -1.7832729105
 C         -6.3683041987        2.1923646193       -0.3003191306
 H         -5.4775306887        1.9509786895        0.2828974196
 H         -6.5768259488        3.2544163093       -0.1457582208
 C         -7.5580071486        1.4004881293        0.2371215895
 H         -7.6988678288        1.6943049295        1.2805481294
 H         -8.4568509586        1.6884524991       -0.3128160206
 C         -7.4261363285       -0.1226268607        0.1856781499
 H         -7.5827075284       -0.4941860909       -0.8233684101
 H         -8.2309865485       -0.5394503106        0.7983187599
 C         -6.1209924185       -0.6706368405        0.7547760101
 H         -6.2255648284       -1.7553883904        0.8808960803
 H         -5.9784911586       -0.2766136702        1.7675111000
 H         -6.9546448085        2.2239086488       -2.3728439406
 H         -5.2813813586        2.6982865690       -2.0603083606
 H         -5.0865180583        0.6323929288       -3.1321465801
 H         -6.4253217183       -0.1039261412       -2.2595188801
 O         -3.3277239684        0.1418380092       -1.7068719398
 C         -2.1936745484       -0.2576430705       -1.0186483497
 O         -1.1344202284       -0.0790422906       -1.6471875996
 O         -3.8252891986       -1.3385723100        2.0192318604
 C         -1.1705469685       -1.2299105000        1.0871947906
 C         -0.1114691886       -0.1572391799        1.0569249605
 C         -0.3870054087        1.0674214702        1.6594812402
 C          0.5430804912        2.0886826103        1.6450953401
 C          1.7692000912        1.9120535603        1.0285840802
 C          2.0547096614        0.6952103501        0.4256382605
 C          1.1217876215       -0.3348239899        0.4518636106
 H          1.3491144316       -1.2687270200       -0.0382979691
 N          3.2884316315        0.5178174001       -0.2237398594
 S          4.6678950813        1.1046356904        0.5510171506
 O          4.6285890513        0.7660905707        1.9564314207
 O          4.8047623913        2.5077259603        0.2486373203
 C          5.9464926215        0.1794671203       -0.2762822991
 C          6.4214474915       -0.9815616495        0.3038303712
 C          7.3976318717       -1.7103152696       -0.3572050985
 C          7.8768813517       -1.2697908098       -1.5817160986
 C          7.3900460917       -0.1025283600       -2.1513498789
 C          6.4148972016        0.6316993101       -1.4952883091
 H          6.0135598015        1.5483224600       -1.8950048694
 H          7.7670834317        0.2374793198       -3.1023713589
 H          8.6368550818       -1.8383464299       -2.0940157984
 H          7.7802027117       -2.6164582394        0.0843010417
 H          6.0263347615       -1.2809659793        1.2613910213
 H          3.4170254716       -0.4279962900       -0.5551842291
 H          2.5060308812        2.6991535203        1.0074395701
 H          0.3135504811        3.0333282604        2.1157066798
 H         -1.3480671088        1.2104719102        2.1354583001
 H         -1.5642605886       -1.2845628098        2.1160261106
 C         -0.6386724584       -2.6165691400        0.7590282710
 C         -1.5601383782       -3.6959708302        0.2774585512
 C         -0.5220318582       -3.1318267903       -0.6431767789
 H          0.3286841419       -3.7502386003       -0.8909484187
 H         -0.8380946682       -2.4828147505       -1.4444433791
 H         -1.4237444282       -4.6966428801        0.6590086714
 H         -2.5931695582       -3.4296961003        0.1077079310
 H          0.1367529716       -2.9222450098        1.4555198211
