  62
        -98.94184467
 C         -2.2574156503       -0.7233156308        0.1242787956
 C         -3.4397787117       -1.0130402400        0.8560677895
 C         -4.3883812573        0.0921964404        1.0248864842
 C         -4.0776861626        1.3127755820        0.5536784316
 C         -4.9268301222        2.5494910727        0.6687692230
 C         -6.0033484782        2.6702307228       -0.4188200465
 C         -7.1830858454        1.7073684573       -0.2772680004
 H         -7.5918134697        1.7816619860        0.7308910334
 H         -7.9572597973        2.0463429090       -0.9684690381
 C         -6.8473179324        0.2429339888       -0.5925240715
 H         -7.6202825658       -0.1768242852       -1.2401989936
 H         -5.9068679931        0.1969527963       -1.1468660155
 C         -6.7439738382       -0.6619202674        0.6354570937
 H         -6.4665018690       -1.6647482482        0.3003761931
 H         -7.7183357586       -0.7286468643        1.1242287316
 C         -5.7080741542       -0.2042472642        1.6706575105
 H         -6.0736124853        0.6702791694        2.2082708670
 H         -5.5534934209       -1.0165926844        2.3848983640
 H         -5.5316463840        2.5285714232       -1.3941385810
 H         -6.3890928063        3.6916972693       -0.3824512332
 H         -4.2488099439        3.4011019862        0.5790771887
 H         -5.3961659180        2.5813200720        1.6525019951
 O         -2.9061442460        1.5692450760       -0.0838776070
 C         -1.9777083082        0.5641051982       -0.3382796718
 O         -0.9805165681        0.9628821652       -0.9693512277
 O         -3.6897218630       -2.1454728359        1.3467737403
 C         -1.2798106895       -1.8681844656       -0.0814799357
 C          0.1058672898       -1.4494227534        0.3347146810
 C          0.4395619054       -1.4352545171        1.6857151742
 C          1.6895786272       -1.0142612225        2.0983105805
 C          2.6282059455       -0.5883362480        1.1744781774
 C          2.2962992221       -0.5772544263       -0.1731634219
 C          1.0490908553       -1.0265841372       -0.5874570634
 H          0.7965601556       -1.0037229013       -1.6360734521
 N          3.2346415313       -0.1383486223       -1.1209626658
 S          4.1669547942        1.2156588881       -0.7891258583
 O          3.4975842531        2.1451288079        0.0905726723
 O          4.5610093781        1.7243460483       -2.0852966875
 C          5.6033470890        0.5370010407        0.0198123604
 C          6.2737015547       -0.4986638950       -0.6014171921
 C          7.3980472133       -1.0304314773        0.0092951811
 C          7.8333306984       -0.5190002908        1.2228110845
 C          7.1522240836        0.5234136618        1.8321014729
 C          6.0262188342        1.0592960700        1.2263135976
 H          5.4620540431        1.8667814185        1.6657926817
 H          7.4919501653        0.9206584343        2.7751507706
 H          8.7084993286       -0.9350283285        1.6964219586
 H          7.9303103323       -1.8410541594       -0.4617321859
 H          5.9047400291       -0.8655302869       -1.5444688742
 H          2.8655834078       -0.0956638624       -2.0600578467
 H          3.5991032265       -0.2437738606        1.4905894983
 H          1.9368930093       -1.0129826026        3.1490768817
 H         -0.2989012990       -1.7497977447        2.4102947734
 H         -1.6255908084       -2.6445702451        0.6200265302
 C         -1.3185374789       -2.4934964277       -1.4683622440
 C         -2.6243524720       -2.6788300088       -2.1802857925
 C         -1.6090374487       -1.7164617358       -2.7158664368
 H         -1.0767073751       -1.9845420204       -3.6173160877
 H         -1.7989397094       -0.6584912093       -2.6237768097
 H         -2.7964325452       -3.6001638069       -2.7157674066
 H         -3.5078468733       -2.2755825364       -1.7068560711
 H         -0.5991834121       -3.3017293178       -1.5608843026
