  62
        -98.94093159
 C         -1.8815223009       -1.3226141670        0.6303086828
 C         -1.8066763292        0.0140753121        1.1012107891
 C         -3.0216419301        0.8232085725        0.9674524379
 C         -4.1359833452        0.2661946077        0.4597620089
 C         -5.4749056994        0.9372803109        0.3121111664
 C         -5.6262532020        1.7666258307       -0.9702078912
 C         -4.8315195504        3.0725634479       -0.9947048997
 H         -5.1921052132        3.6515872871       -1.8471893340
 H         -5.0516915822        3.6473403407       -0.0945648998
 C         -3.3145832828        2.8827920313       -1.1311377941
 H         -2.9282752691        3.5677535536       -1.8891007027
 H         -3.1047738245        1.8691884042       -1.4806432627
 C         -2.5225008126        3.1355477961        0.1516940208
 H         -1.4712122817        2.9233689898       -0.0578341985
 H         -2.6086379890        4.1869652719        0.4348260891
 C         -2.9532721718        2.2719519657        1.3449283253
 H         -2.2055347987        2.3742666005        2.1354654577
 H         -3.9148952671        2.6123731798        1.7288006059
 H         -6.6863270683        2.0074043115       -1.0789517896
 H         -5.3371632170        1.1476861552       -1.8227312006
 H         -6.2208877326        0.1396515629        0.2955330471
 H         -5.6628455582        1.5700953450        1.1801355428
 O         -4.1748145717       -1.0219506417        0.0331035473
 C         -3.0447353898       -1.8366382127        0.0560693055
 O         -3.2353078965       -2.9582355610       -0.4466749750
 H          2.0332555348       -1.5331694776        0.8783822107
 C          1.6591015799       -1.5033322844       -0.1333695398
 C          0.3274623382       -1.7900193294       -0.3905269497
 C         -0.1290728562       -1.7451636874       -1.7042224567
 C          0.7350175105       -1.4190955862       -2.7329146457
 C          2.0610696159       -1.1202342712       -2.4711197762
 C          2.5279386994       -1.1622750130       -1.1623063423
 N          3.8753528025       -0.8960158128       -0.8798478153
 S          4.3529724785        0.0136100301        0.4400866853
 O          5.7721229081        0.2047563393        0.2384023328
 O          3.9668408278       -0.6481581147        1.6593964306
 C          3.5158021147        1.5786171527        0.2685079678
 C          4.1685599786        2.5879770509       -0.4145076709
 C          3.5309956300        3.8045004269       -0.5908661045
 C          2.2529437541        3.9923226906       -0.0851430724
 C          1.6134374181        2.9699145789        0.5970034371
 C          2.2436327735        1.7481063538        0.7755008855
 H          1.7445447488        0.9484799152        1.2984644671
 H          0.6207195053        3.0995098687        0.9980593279
 H          1.7538226076        4.9390927278       -0.2198460247
 H          4.0301602825        4.6011010561       -1.1187973550
 H          5.1668064674        2.4039984714       -0.7776784148
 H          4.4333474718       -0.6637818138       -1.6886660702
 H          2.7322779217       -0.8610469209       -3.2755616070
 H          0.3717832598       -1.3909514294       -3.7492067896
 H         -1.1657251237       -1.9743391845       -1.9062467950
 C         -0.6036544707       -2.1342920789        0.7446277294
 H         -0.1222966093       -1.7839682514        1.6731642375
 C         -0.8222076735       -3.6317183213        0.8931758874
 C         -0.5165568101       -4.6193233444       -0.1883779576
 C          0.3583570434       -4.5480111314        1.0249819661
 H          0.3121652737       -5.3492782348        1.7469103926
 H          1.3409193555       -4.1141328837        0.9100180812
 H         -1.1861486872       -5.4579531938       -0.3016189222
 H         -0.1234515172       -4.2488888756       -1.1220744796
 H         -1.6819104115       -3.8557978366        1.5157811568
 O         -0.7671161371        0.5022152021        1.6193254856
