  62
        -98.94121510
 C          2.2343094615        0.9299657740       -0.0570493868
 C          2.9396301708        0.3878077509        1.0495361652
 C          3.7869035985       -0.7803196572        0.7810347218
 C          3.8272691548       -1.2868425499       -0.4643425744
 C          4.6872976520       -2.4381318395       -0.8966230042
 C          6.0514458901       -1.9525980086       -1.4069747622
 C          6.7465027553       -0.9653846319       -0.4692890776
 H          7.7107853542       -0.7159081937       -0.9171638344
 H          6.1629339263       -0.0428735777       -0.4274076799
 C          6.9652544514       -1.4903493917        0.9565216924
 H          6.8744032294       -2.5770483257        0.9691759176
 H          7.9832619763       -1.2463447817        1.2671863549
 C          6.0244199927       -0.8916483428        2.0037851370
 H          6.0417845329        0.1986941349        1.9317806868
 H          6.4023794442       -1.1602744897        2.9937356336
 C          4.5639320610       -1.3552879401        1.9316999863
 H          4.5237863820       -2.4464728515        1.9152037917
 H          4.0585915925       -1.0069205253        2.8371997172
 H          6.6912284464       -2.8233709260       -1.5610116467
 H          5.9051519005       -1.4630888109       -2.3726408625
 H          4.8218836859       -3.1178692010       -0.0573211487
 H          4.1744776427       -2.9674229639       -1.7016711644
 O          3.1119682360       -0.7671589498       -1.4922239789
 C          2.3023998599        0.3507666962       -1.3242149367
 O          1.7194009219        0.6994271860       -2.3687640267
 H         -0.2831609467        0.7004776549       -1.3177693551
 C         -0.7566743094        1.0101827165       -0.3972616923
 C         -0.0387685173        1.7797010386        0.5087457812
 C         -0.6571076997        2.1603884359        1.6934079484
 C         -1.9623389133        1.7830978899        1.9586533551
 C         -2.6768781007        1.0248317641        1.0487238291
 C         -2.0653281657        0.6329725104       -0.1352180804
 N         -2.7845302334       -0.1320909716       -1.0728243497
 S         -3.4930583983       -1.5538730292       -0.5243455629
 O         -2.7685326733       -2.1067107771        0.5976092643
 O         -3.6126833509       -2.3980983692       -1.6930424581
 C         -5.1198747053       -1.0418750871       -0.0115277247
 C         -5.5494489454       -1.2956516336        1.2763240703
 C         -6.8220379709       -0.8915793727        1.6496913726
 C         -7.6376163913       -0.2452329305        0.7335192414
 C         -7.1919599372       -0.0003686432       -0.5570276201
 C         -5.9216797742       -0.4028476449       -0.9371404157
 H         -5.5380055387       -0.2359839088       -1.9297946597
 H         -7.8289707808        0.5024873155       -1.2666992145
 H         -8.6266412841        0.0694108039        1.0270004912
 H         -7.1702591044       -1.0814775436        2.6522310206
 H         -4.8774865377       -1.7957455785        1.9556171620
 H         -2.2627296953       -0.3071347423       -1.9204649249
 H         -3.6934513175        0.7285041723        1.2493703436
 H         -2.4291892008        2.0831322474        2.8842438014
 H         -0.1013656696        2.7402109115        2.4156325733
 C          1.3894310046        2.1631907106        0.2173789454
 H          1.8112420452        2.5829052754        1.1442231884
 C          1.5198771427        3.2288822255       -0.8632135304
 C          0.3975823727        3.6565162025       -1.7565480401
 C          0.8737384793        4.5690965210       -0.6692512186
 H          1.4273429387        5.4559285690       -0.9376136270
 H          0.2359486605        4.6879562407        0.1937388978
 H          0.6407445442        3.8931492911       -2.7812735758
 H         -0.5635458897        3.1819861532       -1.6381789488
 H          2.5086848686        3.2277381827       -1.3111183132
 O          2.8690205575        0.8711802242        2.2109818673
