  62
        -98.93690149
 C          2.6524407412        0.1992818338       -0.1570775309
 C          2.0189395113        0.9142127490        0.8866415279
 C          1.4398922474        2.2310158699        0.5418294105
 C          1.6194911646        2.7217964841       -0.6968917405
 C          1.1362845013        4.0253529230       -1.2782969468
 C         -0.3550328784        4.0047212741       -1.6403019686
 C         -1.2666365517        3.4216293764       -0.5641022592
 H         -2.2841071356        3.4090498223       -0.9655592238
 H         -0.9889408707        2.3816962507       -0.3789085056
 C         -1.2966329670        4.1920040398        0.7542062902
 H         -2.0720354031        3.7324074101        1.3727730586
 H         -1.5915837906        5.2257496405        0.5587814315
 C          0.0028779238        4.1975559467        1.5639776226
 H          0.7124995382        4.9236964250        1.1753832177
 H         -0.2492546502        4.5209031703        2.5781274585
 C          0.6707242890        2.8326227147        1.6925247718
 H          1.3739200258        2.8592280790        2.5336274862
 H         -0.0837615743        2.0850123224        1.9706249052
 H         -0.4773524870        3.3978010172       -2.5407908577
 H         -0.6662520858        5.0254568001       -1.8718305863
 H          1.3549082360        4.8429823460       -0.5976562002
 H          1.7132115964        4.1881450759       -2.1917639054
 O          2.3130005639        2.0331111585       -1.6503176476
 C          2.7830430541        0.7563864136       -1.4305831919
 O          3.3228266037        0.2300944121       -2.4273516214
 H          0.5594487359       -1.0677700963        0.8322647670
 C          0.7262012085       -1.9215518331        0.1954871973
 C          1.9887674764       -2.1829800458       -0.3127504313
 C          2.1628670545       -3.3106576343       -1.1072606779
 C          1.0930454097       -4.1383364207       -1.3988847108
 C         -0.1764872966       -3.8398820943       -0.9364989282
 C         -0.3583750787       -2.7181091486       -0.1368012729
 N         -1.6261828985       -2.3459995722        0.3414880671
 S         -1.9652021116       -0.6838175077        0.3023774090
 O         -1.3572473936       -0.0898811809       -0.8659595683
 O         -1.6291516767       -0.1064362180        1.5783951989
 C         -3.7406189814       -0.7195027294        0.1289625427
 C         -4.5075340335       -0.9895503302        1.2470701389
 C         -5.8851211444       -1.0581197682        1.1139186456
 C         -6.4699683139       -0.8562577162       -0.1276750857
 C         -5.6877783483       -0.5829028046       -1.2396183339
 C         -4.3087695943       -0.5153123194       -1.1137603123
 H         -3.6594698756       -0.2999246531       -1.9473326771
 H         -6.1448668315       -0.4224320541       -2.2027038028
 H         -7.5423815879       -0.9097418154       -0.2287453964
 H         -6.4962771095       -1.2674703176        1.9769011416
 H         -4.0081338830       -1.1289587829        2.1917256542
 H         -2.3757761624       -2.8875780618       -0.0679795705
 H         -1.0183478360       -4.4640430197       -1.1952527065
 H          1.2432151317       -5.0102084017       -2.0173034721
 H          3.1396855226       -3.5240130746       -1.5151881600
 C          3.1349300285       -1.2367697603       -0.0310603994
 H          3.8822062453       -1.3751186810       -0.8256142695
 C          3.7823600374       -1.5716242457        1.2981385223
 C          4.7892836772       -2.6790139909        1.3641288281
 C          5.2304868445       -1.2544328456        1.5119622479
 H          5.5398956079       -0.9027897282        2.4844469558
 H          5.7658382836       -0.7979719482        0.6918571231
 H          4.7968799240       -3.3128477620        2.2373664364
 H          5.0363794083       -3.1902384335        0.4462740431
 H          3.1150512033       -1.4427068109        2.1400956667
 O          1.9170789559        0.4970386323        2.0722818499
