  62
        -98.94027568
 C         -2.4964694654       -1.1568693622        0.0285598246
 C         -2.6076595358       -0.0189349467       -0.8063605824
 C         -3.9693381518        0.4959939138       -0.9984065063
 C         -5.0107320294       -0.1312491391       -0.4221363652
 C         -6.4577188170        0.2645153287       -0.5399834483
 C         -6.8864828652        1.3597078402        0.4464546559
 C         -6.3568686867        2.7603481904        0.1359168313
 H         -6.5865406947        3.0132172495       -0.8995550523
 H         -6.9059781787        3.4580582942        0.7712856074
 C         -4.8536085698        2.9402814859        0.3903695723
 H         -4.4909730271        2.1289179992        1.0256958796
 H         -4.6846891530        3.8718973015        0.9350203803
 C         -3.9981740168        2.9944497174       -0.8755121456
 H         -2.9496152172        3.0777973832       -0.5777532742
 H         -4.2565820190        3.8832454892       -1.4554168674
 C         -4.1344635885        1.7634415056       -1.7810287215
 H         -5.0966437263        1.7751701618       -2.2924288070
 H         -3.3380675107        1.7975012436       -2.5284996002
 H         -6.5730830307        1.0663525859        1.4510059693
 H         -7.9781957418        1.3970456969        0.4365031362
 H         -7.0432998291       -0.6336761725       -0.3328110615
 H         -6.6668970588        0.5886461337       -1.5597034646
 O         -4.8626400774       -1.2435587666        0.3468205960
 C         -3.6070544661       -1.7658788769        0.6117931395
 O         -3.6116968099       -2.7581384661        1.3689131754
 O         -1.6266095091        0.5401403229       -1.3620343788
 C         -1.1284323806       -1.7445002825        0.3234833885
 C         -0.2366395607       -0.6840778621        0.9228515836
 C         -0.7003026020        0.0343383554        2.0227794521
 C          0.0762018073        1.0175557104        2.6031939664
 C          1.3375727801        1.2980117236        2.1075590961
 C          1.8102628638        0.5869866340        1.0114197884
 C          1.0259868022       -0.4002792159        0.4293780666
 H          1.4192652448       -0.9355816485       -0.4182239856
 N          3.0722878004        0.8741340196        0.4681887513
 S          3.9800459035       -0.3713317015       -0.2162810342
 O          3.5227842499       -0.6089732556       -1.5618934184
 O          3.9957451890       -1.5171147436        0.6656972722
 C          5.5866027342        0.4021433917       -0.2564328485
 C          5.8655201242        1.2926508680       -1.2762081460
 C          7.0993077538        1.9231921068       -1.2960007774
 C          8.0282783285        1.6552304246       -0.3012889222
 C          7.7350950187        0.7575335533        0.7141734268
 C          6.5022920704        0.1243256523        0.7407149997
 H          6.2332289027       -0.5863362779        1.5055550273
 H          8.4606771801        0.5489634222        1.4837877972
 H          8.9879121337        2.1472059719       -0.3195555527
 H          7.3318854967        2.6193244272       -2.0856768064
 H          5.1158170589        1.4625453418       -2.0314691029
 H          3.6354018001        1.4623450041        1.0668998939
 H          1.9454205308        2.0671690990        2.5593302084
 H         -0.2999855511        1.5677355474        3.4527763885
 H         -1.6848321797       -0.1895465733        2.4122901724
 H         -1.2861968209       -2.5258628532        1.0820225193
 C         -0.5531369308       -2.3865720561       -0.9210070063
 C          0.4479947948       -3.4946757414       -0.8013587848
 C         -0.9452484518       -3.7899378458       -1.2678419948
 H         -1.0996727831       -4.0407377900       -2.3064969418
 H         -1.6155438801       -4.2984414187       -0.5899501213
 H          1.2559878201       -3.5367330619       -1.5168322085
 H          0.7314821902       -3.8068522933        0.1928062932
 H         -0.4365429713       -1.6830914517       -1.7381749095
