  62
        -98.93762877
 C         -1.9083805714       -1.4986883600        0.0725307992
 C         -2.1829482309       -0.5786384203        1.1129681696
 C         -3.0860461905        0.5458954801        0.8041436402
 C         -3.5861454507        0.6459696809       -0.4417342396
 C         -4.4986619504        1.7050313615       -1.0017265490
 C         -3.7659870499        3.0223331713       -1.3002900485
 C         -2.8077810596        3.4809335405       -0.2047593485
 H         -2.0684587699        2.6967971801       -0.0320472089
 H         -2.2765405593        4.3615508205       -0.5755723782
 C         -3.4662198492        3.8573701101        1.1205387818
 H         -2.6849760590        4.2630242096        1.7687962018
 H         -4.1956879590        4.6513598905        0.9462351522
 C         -4.1585050596        2.7173662001        1.8714906614
 H         -5.1299578097        2.4933310206        1.4389817714
 H         -4.3473530293        3.0671554097        2.8907646816
 C         -3.3322526100        1.4407908097        1.9953779407
 H         -3.7955510301        0.7986478895        2.7543406305
 H         -2.3437403799        1.6906503091        2.3977649306
 H         -4.5112383997        3.7975351017       -1.4859170781
 H         -3.1853351701        2.8848845015       -2.2154447987
 H         -4.8981673107        1.3094926120       -1.9381159391
 H         -5.3351925602        1.8708501515       -0.3294037788
 O         -3.2684076612       -0.2448365588       -1.4216054001
 C         -2.4232531015       -1.3194755992       -1.2115550207
 O         -2.2310894420       -2.0131225888       -2.2274547010
 O         -1.6914335608       -0.6880006910        2.2701863595
 C         -0.9781074118       -2.6574639305        0.3945502385
 C          0.4098249583       -2.2966072108       -0.0767537215
 C          0.8396069080       -2.5151374704       -1.3805516417
 C          2.1072714281       -2.1215164207       -1.7716951717
 C          2.9682439884       -1.5057858314       -0.8799898616
 C          2.5415100587       -1.2701281318        0.4205572586
 C          1.2700354986       -1.6651482815        0.8119737486
 H          0.9310058389       -1.4673037818        1.8201415987
 N          3.4010311891       -0.6421953225        1.3377081087
 S          4.2961443495        0.6734805273        0.8285270092
 O          5.4381351592        0.2190474772        0.0753228788
 O          4.5896556300        1.4176302367        2.0326271495
 C          3.2095733397        1.6125835082       -0.2298456902
 C          3.5311723996        1.7996524987       -1.5584571502
 C          2.6655775197        2.5240817294       -2.3624002997
 C          1.4992857100        3.0464028896       -1.8259061093
 C          1.1920245801        2.8529233791       -0.4877708294
 C          2.0519047300        2.1270829484        0.3195431002
 H          1.8403340001        1.9633454880        1.3643792201
 H          0.2854862004        3.2627830493       -0.0717219291
 H          0.8254141601        3.6100535601       -2.4515587290
 H          2.9022947796        2.6781396698       -3.4027894297
 H          4.4496836894        1.3793376885       -1.9344480105
 H          2.9827245393       -0.4747142228        2.2408895589
 H          3.9632566185       -1.2098150416       -1.1698514716
 H          2.4313699978       -2.2976672003       -2.7860614219
 H          0.1675262177       -2.9706445698       -2.0897544118
 H         -0.9523364717       -2.7078440710        1.4916149785
 C         -1.4604787624       -3.9910680501       -0.1342169920
 C         -0.8360344328       -5.2454207105        0.3970384073
 C         -2.2449685626       -4.8944823902        0.7674112777
 H         -3.0509692129       -5.4728787297        0.3413903076
 H         -2.4381230723       -4.5548472405        1.7747242779
 H         -0.6715249732       -6.0671256403       -0.2827340431
 H         -0.0716588526       -5.1406527112        1.1524348073
 H         -1.7440564925       -3.9712598895       -1.1778238820
