  62
        -98.94135759
 C         -2.5608419380       -0.1790492853        0.1383859199
 C         -2.5544201715        0.9511619699        0.9930854982
 C         -2.2630211648        2.2418534068        0.3625999270
 C         -2.0051747610        2.2937837851       -0.9564263079
 C         -1.6812520727        3.5308562548       -1.7486476851
 C         -0.2003993410        3.9281456355       -1.6786878681
 C          0.2393573934        4.5577641905       -0.3562731189
 H          1.2181741575        5.0102012582       -0.5268715510
 H         -0.4495942938        5.3591290648       -0.0858111610
 C          0.3582266087        3.5623556578        0.8064724629
 H          0.4266789308        2.5444925970        0.4131462348
 H          1.2889924911        3.7458465112        1.3498356898
 C         -0.7767650735        3.6336842502        1.8289685712
 H         -0.6148657044        2.8437993789        2.5677738506
 H         -0.7403970837        4.5943883471        2.3487969373
 C         -2.1822313334        3.4537574391        1.2411052371
 H         -2.8815192973        3.3108006151        2.0690865594
 H         -2.4736225179        4.3451151250        0.6855343661
 H          0.4070390954        3.0403675953       -1.8720729894
 H         -0.0153330468        4.6465466839       -2.4808445374
 H         -1.9315600455        3.3088449714       -2.7882292791
 H         -2.3017776608        4.3608935436       -1.4092515026
 O         -2.0244728392        1.1899115100       -1.7464770128
 C         -2.2503560256       -0.0736775086       -1.2189794069
 O         -2.1628986790       -0.9895715740       -2.0586529534
 O         -2.7767237704        0.8812155743        2.2335212345
 C         -2.7338895641       -1.5450731681        0.7786372341
 C         -1.5923541823       -2.4404405104        0.3605260390
 C         -1.7375000550       -3.7591900014       -0.0453453249
 C         -0.6258858913       -4.5046189329       -0.4042972811
 C          0.6402676445       -3.9524249068       -0.3868600233
 C          0.7943427677       -2.6253082811        0.0058726007
 C         -0.3123764909       -1.8994623016        0.4049867929
 H         -0.1811949321       -0.8783276165        0.7345519442
 N          2.0556875424       -2.0091937386       -0.0416234424
 S          2.2766499439       -0.4144930892        0.4226830222
 O          2.0346993464       -0.2468312220        1.8408847552
 O          1.5258770171        0.4364520852       -0.4652718135
 C          4.0214911936       -0.2558734900        0.0953081450
 C          4.9240224493       -0.4762155626        1.1186300881
 C          6.2805097100       -0.3865199962        0.8484976615
 C          6.7096102959       -0.0812852594       -0.4343856364
 C          5.7922712842        0.1398509899       -1.4509772820
 C          4.4346208766        0.0510782167       -1.1869562029
 H          3.6838554681        0.2206001579       -1.9415927581
 H          6.1288039131        0.3803791259       -2.4465320446
 H          7.7655091742       -0.0121371371       -0.6428622422
 H          6.9955734559       -0.5544919360        1.6376056181
 H          4.5432599278       -0.6991197083        2.1023796458
 H          2.8362949129       -2.6120634685        0.1692606050
 H          1.5008361973       -4.5294675997       -0.6870645877
 H         -0.7520934562       -5.5307333413       -0.7150664862
 H         -2.7187127038       -4.2017084999       -0.0970181608
 H         -2.6198041615       -1.3484426341        1.8596857452
 C         -4.1069519447       -2.1752984469        0.6009899205
 C         -5.2989784225       -1.3463448230        0.2289946689
 C         -4.7443000081       -2.3398410855       -0.7449844282
 H         -5.3116792405       -3.2391030629       -0.9356106040
 H         -4.1977216699       -1.9733211494       -1.5991516469
 H         -6.2423126898       -1.5612828538        0.7085009356
 H         -5.1356908361       -0.2959268141        0.0345154504
 H         -4.2863157331       -2.9666136924        1.3226005060
