  62
        -98.92944596
 C         -2.4835455057       -0.8069115064        0.9738787894
 C         -3.2909502628       -0.6495899178       -0.1811807778
 C         -4.1783224165        0.5238951979       -0.1809277313
 C         -4.2023202957        1.3550291604        0.8750122629
 C         -5.0710752136        2.5737848653        1.0284470478
 C         -4.4993418702        3.8340207613        0.3645787667
 C         -4.5524443956        3.8455443367       -1.1637267353
 H         -5.5671099219        3.6192523091       -1.4927010962
 H         -4.3257842588        4.8643810361       -1.4842089719
 C         -3.5639244703        2.8848454213       -1.8397193317
 H         -2.7945856534        2.5875088047       -1.1230291068
 H         -3.0548861998        3.4010773873       -2.6568288440
 C         -4.2029157451        1.6268971044       -2.4284086547
 H         -3.4079014631        1.0017373513       -2.8432824721
 H         -4.8742284272        1.9044301865       -3.2441495776
 C         -4.9881937538        0.7840505750       -1.4151287055
 H         -5.9250137446        1.2785084044       -1.1594613956
 H         -5.2140765754       -0.1812003197       -1.8745242800
 H         -3.4657853550        3.9637200206        0.6938591973
 H         -5.0751652649        4.6860962335        0.7331581656
 H         -5.1592787748        2.7594186794        2.1010925166
 H         -6.0643604054        2.3686191915        0.6284213164
 O         -3.4187912081        1.1630847069        1.9700176775
 C         -2.5278002762        0.1069501585        2.0303912061
 O         -1.8375262192        0.0855375103        3.0717289677
 O         -3.2908720541       -1.4280487749       -1.1655495379
 C         -1.4760739273       -1.9424509901        1.1262677022
 C         -0.4412018355       -1.8307683486        0.0327550042
 C         -0.5173357445       -2.4216947664       -1.2224982344
 C          0.4736878466       -2.2007546842       -2.1645751490
 C          1.5537910238       -1.3824441918       -1.8927972491
 C          1.6393768477       -0.7762069123       -0.6462019256
 C          0.6536695881       -1.0132031281        0.3005460066
 H          0.7219209815       -0.5338165028        1.2698149806
 N          2.7118749962        0.0932809378       -0.3554118343
 S          4.2719328727       -0.4701993086       -0.6815323627
 O          4.4802509238       -0.4459466393       -2.1069224990
 O          4.4865168550       -1.7458896281       -0.0333874938
 C          5.2543374507        0.7968147529        0.0941367752
 C          5.4518396935        1.9854834840       -0.5824119959
 C          6.1946468882        2.9853408418        0.0245724819
 C          6.7237024751        2.7814858042        1.2905441711
 C          6.5177982430        1.5826446297        1.9563211007
 C          5.7745988852        0.5787125810        1.3553578084
 H          5.5967650006       -0.3718186472        1.8325614964
 H          6.9323377402        1.4260935750        2.9391838771
 H          7.3024734214        3.5609185424        1.7604759138
 H          6.3591096860        3.9181359054       -0.4902744511
 H          5.0287053436        2.0957845773       -1.5671093370
 H          2.6657386675        0.4261268176        0.5991013571
 H          2.3276728368       -1.2096945974       -2.6226125085
 H          0.3961408585       -2.6707017721       -3.1338017289
 H         -1.3632341329       -3.0291924297       -1.4884053488
 H         -0.9511112203       -1.7075903830        2.0651179407
 C         -2.1526074598       -3.2816801461        1.3907419782
 C         -2.9365393195       -4.0941736594        0.4064043480
 C         -1.6154698960       -4.5949911790        0.9060821103
 H         -1.6115623265       -5.4286623223        1.5926177364
 H         -0.7710667927       -4.5760478802        0.2347825823
 H         -3.8337039664       -4.5755519661        0.7701429414
 H         -3.0306755556       -3.7317723225       -0.6030905038
 H         -2.5579118551       -3.2815230455        2.4004015888
