  62
        -98.93485727
 C         -2.2640963925        0.4853506886       -0.1293268190
 C         -3.5198804902        0.9833176171       -0.5426934049
 C         -4.6653082856        0.0559067940       -0.4661261748
 C         -4.4519854507       -1.1978125683       -0.0244460830
 C         -5.4599335973       -2.2985063289        0.1749739561
 C         -6.3150550962       -2.0979475512        1.4366050874
 C         -6.8281190737       -0.6756775610        1.6460970562
 H         -5.9785877723        0.0082461736        1.6911219970
 H         -7.3226899402       -0.6419593341        2.6204781055
 C         -7.8241619406       -0.1818802534        0.5995411865
 H         -8.1716475143        0.8027567612        0.9225728879
 H         -8.6881122835       -0.8499533837        0.5842904477
 C         -7.2862625824       -0.0503853770       -0.8268632681
 H         -8.0139940802        0.5353572156       -1.3960299658
 H         -7.2224127469       -1.0197156076       -1.3137579692
 C         -5.9542091109        0.6843424079       -0.9394583663
 H         -6.0292242226        1.6458272637       -0.4189022972
 H         -5.7856869400        0.9411021191       -1.9923108887
 H         -5.7039036238       -2.3619215571        2.3032083244
 H         -7.1580917464       -2.7896567499        1.3950016023
 H         -4.8925732498       -3.2254976559        0.2834211719
 H         -6.0866147143       -2.3950699120       -0.7065821272
 O         -3.2173224426       -1.6371605855        0.3578335785
 C         -2.0998886296       -0.8244241572        0.3177350396
 O         -1.0461910703       -1.3743697308        0.6942283039
 O         -3.6861440942        2.1607028794       -0.9631049857
 C         -1.0552898080        1.4006203482       -0.1785904422
 C          0.0208813828        0.7990454374       -1.0479582740
 C         -0.3182609565        0.3469036475       -2.3210426977
 C          0.6332736626       -0.2206556079       -3.1449033597
 C          1.9432026984       -0.3493185403       -2.7176261681
 C          2.2976109359        0.1158236262       -1.4571057442
 C          1.3392724026        0.6927595833       -0.6343216975
 H          1.6376923701        1.0382501120        0.3402232930
 N          3.6377182449        0.0472190002       -1.0331118273
 S          4.0224410818       -0.2963902725        0.5736778054
 O          3.4856446456       -1.5821791689        0.9618955371
 O          3.6643691840        0.8281767241        1.3994301085
 C          5.7984534611       -0.3898741617        0.4316013230
 C          6.4161757592       -1.6237168643        0.3579798228
 C          7.7943260484       -1.6766293839        0.2180710544
 C          8.5268449759       -0.5012106084        0.1509414513
 C          7.8928688148        0.7301682405        0.2275117243
 C          6.5157707770        0.7898590868        0.3690108271
 H          5.9807131482        1.7221837241        0.4412532769
 H          8.4660189561        1.6418652305        0.1775112897
 H          9.5988106828       -0.5452189292        0.0405470884
 H          8.2900436155       -2.6323596222        0.1614323081
 H          5.8067619126       -2.5109682345        0.4225098559
 H          4.1977941379       -0.5313546615       -1.6457933910
 H          2.6851694403       -0.8032898796       -3.3571074246
 H          0.3529173460       -0.5746570044       -4.1257321845
 H         -1.3444506804        0.4387738360       -2.6507972464
 H         -1.4081587100        2.3263775421       -0.6582132619
 C         -0.5854198951        1.7285192872        1.2227628583
 C          0.1196539800        3.0214956009        1.4996102006
 C         -1.2793177785        2.8101849688        1.9928804709
 H         -1.4399332010        2.6672031957        3.0509650207
 H         -2.0817953558        3.3343282165        1.4945691893
 H          0.9285375566        3.0203319522        2.2149113133
 H          0.2673829286        3.6951608711        0.6691002496
 H         -0.2679527176        0.8479496814        1.7724271386
