  62
        -98.93762170
 C         -0.6131658207       -1.5467079001        0.3995082611
 C         -1.4074594999       -0.5806028291        1.0637635006
 C         -2.3439248698        0.1830913707        0.2288438602
 C         -2.3592090303       -0.0170814304       -1.1009919596
 C         -3.1823606103        0.7333087192       -2.1155371400
 C         -4.7112528203        0.5662565201       -2.0225191693
 C         -5.4159502094        1.6464538512       -1.1924059800
 H         -4.7920713689        2.5411186409       -1.1807262210
 H         -6.3471430994        1.9205800713       -1.6922724699
 C         -5.7768528992        1.2530146426        0.2430568705
 H         -6.0353562685        2.1652314932        0.7847939198
 H         -6.6653317795        0.6178879531        0.2253698813
 C         -4.6942213893        0.5043356227        1.0202617407
 H         -4.6380123000       -0.5284241576        0.6682172916
 H         -4.9982850890        0.4573528937        2.0677132709
 C         -3.2863981190        1.1237557618        0.9227539497
 H         -3.3227835987        2.0829097114        0.4072293289
 H         -2.8816346186        1.2795682324        1.9248239195
 H         -5.0950044006        0.6155425395       -3.0428125692
 H         -4.9453373908       -0.4260262294       -1.6377580184
 H         -2.9274417796        1.7945026891       -2.0533227009
 H         -2.8398356008        0.3713890382       -3.0875169998
 O         -1.5575387811       -0.9323993114       -1.7077875091
 C         -0.6563034313       -1.7037055913       -0.9881782287
 O          0.0177825781       -2.4772832323       -1.6933226483
 O         -1.3234500794       -0.3490982481        2.2997837703
 C          0.4234365691       -2.2891883300        1.2267249214
 C          1.7683238290       -2.1194712713        0.5665304508
 C          2.6132005783       -3.1620405821        0.2141359414
 C          3.8037563582       -2.9001271433       -0.4431490792
 C          4.1617788689       -1.6083448438       -0.7817943904
 C          3.3230340796       -0.5571681731       -0.4276783010
 C          2.1593071697       -0.8188217418        0.2719108696
 H          1.5110612402       -0.0000580112        0.5489393791
 N          3.6324564602        0.7733342265       -0.7515847423
 S          2.3916663407        1.8085825568       -1.1976128827
 O          1.3257899100        1.1246792968       -1.8917478818
 O          3.0588530510        2.8602058358       -1.9389102738
 C          1.8043559115        2.4867096784        0.3397958869
 C          2.7268556721        3.0029243587        1.2284353262
 C          2.2743056928        3.5523459399        2.4170241058
 C          0.9153971029        3.5806107809        2.6927580563
 C          0.0017207124        3.0642189007        1.7873454270
 C          0.4484581316        2.5113071494        0.5979481773
 H         -0.2290533288        2.0798367692       -0.1241040421
 H         -1.0542701876        3.0769317815        2.0033488474
 H          0.5630935535        4.0053970319        3.6193776860
 H          2.9806520233        3.9546242201        3.1251855253
 H          3.7731177320        2.9637726179        0.9756919058
 H          4.4467368101        0.8912653655       -1.3370783226
 H          5.0735947488       -1.4123855748       -1.3253203409
 H          4.4514405477       -3.7187311639       -0.7187506287
 H          2.3292606378       -4.1798786018        0.4254021623
 H          0.4449008598       -1.7374820292        2.1822881109
 C          0.0773501884       -3.7283986395        1.5713969527
 C         -1.3487807318       -4.1876450487        1.6135864136
 C         -0.4256326724       -4.7065885201        0.5542002637
 H         -0.0938635830       -5.7323941402        0.6246809445
 H         -0.5486685926       -4.3550768509       -0.4577072765
 H         -1.6521232319       -4.8536926379        2.4073856042
 H         -2.1094656015       -3.4776075085        1.3224385632
 H          0.7293885385       -4.1256441193        2.3433906828
