  62
        -98.93830979
 C         -1.4027780799       -1.5045193900       -0.1477448601
 C         -2.5686608299       -1.2866266696        0.6253116197
 C         -3.4257926997       -0.1520124595        0.2363026495
 C         -3.0375837194        0.6372719903       -0.7811685205
 C         -3.7226607491        1.8567229304       -1.3436734607
 C         -4.2752721090        2.8629080706       -0.3221621409
 C         -5.8035521690        2.8959273209       -0.2700816410
 H         -6.1884969490        2.8144236809       -1.2888067910
 H         -6.1195993389        3.8660610910        0.1199021588
 C         -6.4466454493        1.8175739611        0.6006052791
 H         -7.5258097393        1.8595045813        0.4349659690
 H         -6.2714627393        2.0508901512        1.6531122290
 C         -5.9663081396        0.3885294010        0.3382769893
 H         -5.8544271295        0.2121744109       -0.7308617307
 H         -6.7425014497       -0.2932069788        0.6926847893
 C         -4.6640550597        0.0321529408        1.0704941094
 H         -4.7873686399       -0.9207111391        1.5946924095
 H         -4.4581062796        0.7741464109        1.8474806393
 H         -3.9276962388        3.8563058605       -0.6100070610
 H         -3.8681294491        2.6505482506        0.6651299492
 H         -4.5233331192        1.5285831904       -2.0109818208
 H         -2.9741591190        2.3407604901       -1.9752044607
 O         -1.8993706194        0.3965228300       -1.4914736004
 C         -1.0639662997       -0.6725787802       -1.2133519602
 O         -0.0823770796       -0.7561856504       -1.9758004701
 O         -2.8857581302       -2.0145568795        1.6035852798
 C         -0.4787351202       -2.6436914501        0.2532188101
 C          0.7876747999       -2.0152270903        0.7775314601
 C          0.8295364199       -1.5492916601        2.0890291600
 C          1.9339556600       -0.8653660203        2.5619458200
 C          3.0088066401       -0.6055606206        1.7288559801
 C          2.9686411501       -1.0559030308        0.4163753701
 C          1.8782264400       -1.7804788106       -0.0448738199
 H          1.8633392300       -2.1174052307       -1.0688221798
 N          4.0248197503       -0.7379201711       -0.4574187998
 S          4.5312569506        0.8582667988       -0.4530535800
 O          4.9940955307        1.1206248686       -1.7984724699
 O          5.5169126705        1.0397552687        0.5854642701
 C          3.0948672108        1.8538456091       -0.0779992702
 C          3.1863231109        2.8035011592        0.9201792097
 C          2.0801806110        3.5855900295        1.2096772295
 C          0.9021406110        3.4030126497        0.5020227395
 C          0.8270184609        2.4465471596       -0.4980393004
 C          1.9314136408        1.6646967693       -0.7968570403
 H          1.8701553507        0.9093880292       -1.5647367702
 H         -0.0883649291        2.2876538097       -1.0464615905
 H          0.0374581511        4.0062391199        0.7298684793
 H          2.1378424111        4.3303619896        1.9870749295
 H          4.1185262708        2.9047685891        1.4520362898
 H          3.8656617503       -1.0539488912       -1.4036142498
 H          3.8703566102       -0.0548010508        2.0707680201
 H          1.9547931300       -0.5174380302        3.5833369200
 H         -0.0257074802       -1.7163507099        2.7285698400
 H         -0.9843094403       -3.1535540599        1.0834890201
 C         -0.2608449203       -3.6347194103       -0.8698941198
 C          0.3562501694       -4.9651955504       -0.5612358696
 C         -1.0954561305       -4.8777458801       -0.9218001297
 H         -1.4111279705       -5.2456755402       -1.8866233297
 H         -1.8265659106       -5.0222114899       -0.1400394198
 H          1.0393511294       -5.3968543806       -1.2767766495
 H          0.6123708193       -5.1670973703        0.4678227804
 H         -0.0147088101       -3.1690995104       -1.8163924498
