  62
        -98.94175126
 C          2.2312581200        1.1914211188        0.3580461018
 C          1.9940780824        0.2922460812       -0.7119086706
 C          2.6448124320       -1.0235893906       -0.5972671099
 C          3.3408476054       -1.3266637081        0.5124359779
 C          3.9807544630       -2.6555574396        0.7888339846
 C          3.0118606854       -3.5962816387        1.5196716297
 C          1.6313227354       -3.6937236341        0.8691548863
 H          1.1280774215       -2.7271936066        0.9499976329
 H          1.0496208698       -4.4097448247        1.4539112424
 C          1.6542138564       -4.1290943772       -0.6025909826
 H          0.8843444763       -4.8876095615       -0.7572905219
 H          2.6136760602       -4.5922259757       -0.8357839843
 C          1.3790846256       -3.0013262783       -1.5984039170
 H          0.4667789482       -2.4720728048       -1.3137995584
 H          1.2089132180       -3.4491602443       -2.5806917553
 C          2.4981274681       -1.9660375404       -1.7588253090
 H          2.2466544431       -1.3417371912       -2.6211166726
 H          3.4446548497       -2.4708655702       -1.9633726207
 H          2.8846179621       -3.2346056979        2.5428873233
 H          3.4649710243       -4.5883156055        1.5655014439
 H          4.2984405990       -3.1028149031       -0.1510714993
 H          4.8578454327       -2.4922523753        1.4174484681
 O          3.4901840330       -0.4617705948        1.5489611226
 C          2.9466222972        0.8114303949        1.4963573582
 O          3.1547246420        1.4969027848        2.5184379719
 H         -0.2662688127        1.4146615941        1.7398453879
 C         -0.6713035140        1.8812348243        0.8494636743
 C          0.1912171832        2.5542708357       -0.0074298809
 C         -0.3338599076        3.1421239540       -1.1498701660
 C         -1.6891844936        3.0583181952       -1.4173181147
 C         -2.5471871223        2.3998605595       -0.5555867740
 C         -2.0311703850        1.8010951609        0.5871348693
 N         -2.8836971431        1.1515157696        1.4954139481
 S         -4.1226540031        0.1554511656        0.9865114626
 O         -5.1166639480        0.9385815718        0.2970635131
 O         -4.5601475215       -0.5212863933        2.1862999619
 C         -3.3889117093       -1.0214424252       -0.1326279470
 C         -3.4432856876       -0.8062230011       -1.4944711137
 C         -2.8545283963       -1.7316972554       -2.3416813721
 C         -2.2274526776       -2.8499164084       -1.8156745626
 C         -2.1778521006       -3.0500444979       -0.4440861536
 C         -2.7593642799       -2.1258822682        0.4074432204
 H         -2.7540348323       -2.2519319044        1.4784634743
 H         -1.6858421867       -3.9190171749       -0.0373085175
 H         -1.7742722824       -3.5709139977       -2.4774737829
 H         -2.8866202829       -1.5769932240       -3.4080400071
 H         -3.9517610471        0.0670795507       -1.8676668457
 H         -2.4070193551        0.7493750506        2.2884800835
 H         -3.6067352007        2.3465507449       -0.7452689236
 H         -2.0855456940        3.5166405531       -2.3107057448
 H          0.3211718337        3.6457253050       -1.8412692262
 C          1.6533320634        2.5968380508        0.3632099001
 H          1.7188804871        2.9248417871        1.4140512554
 C          2.4518181841        3.6054452350       -0.4488580541
 C          3.9408382300        3.4826404159       -0.5709504918
 C          3.0707767570        3.2776599836       -1.7727495878
 H          3.0707457965        4.0401191834       -2.5381032595
 H          2.9431439620        2.2774490891       -2.1538878257
 H          4.4084313219        2.6178949601       -0.1221752075
 H          4.5373322060        4.3805441985       -0.5105664262
 H          2.0628883310        4.6122807441       -0.3296057843
 O          1.2844318561        0.5572823078       -1.7144235481
