  62
        -98.94226824
 C         -1.2474324721       -1.2298832161        0.0729288233
 C         -1.5888294199       -0.0877621832        0.8314392519
 C         -2.6553054050        0.7778929412        0.2968756411
 C         -3.2127026177        0.4583642831       -0.8858047077
 C         -4.3384069279        1.1640469866       -1.5919960075
 C         -5.7120692175        0.8676992393       -0.9621004235
 C         -5.7310979006        0.8182308980        0.5643238925
 H         -6.7113304783        0.4451566053        0.8724840002
 H         -4.9874634507        0.0969385490        0.9082804094
 C         -5.5021275646        2.1562097324        1.2632119463
 H         -6.3101008498        2.8411915857        0.9956415849
 H         -5.5596872170        1.9780004530        2.3400013120
 C         -4.1720409969        2.8468280463        0.9617094447
 H         -4.1752832866        3.2699247593       -0.0393165630
 H         -4.0764136526        3.6891530254        1.6536262631
 C         -2.9328853457        1.9798241841        1.1667373886
 H         -2.9230343121        1.6098481661        2.1983578722
 H         -2.0451635961        2.6199932699        1.0754103463
 H         -6.4228070579        1.6173583856       -1.3133208516
 H         -6.0423449675       -0.1077884196       -1.3267282899
 H         -4.1397923163        2.2318821154       -1.6214103174
 H         -4.3414840584        0.8005653841       -2.6220111074
 O         -2.8290710983       -0.6357298631       -1.6025634444
 C         -1.8294314835       -1.4872098867       -1.1670668681
 O         -1.5619121332       -2.4140694027       -1.9558936542
 O         -1.0244026915        0.2020782853        1.9226620367
 C         -0.1351697146       -2.1338144248        0.5691839223
 C          1.0790062662       -2.0090215531       -0.3202922489
 C          1.9058991376       -3.0771311400       -0.6455029147
 C          3.0206125565       -2.8793486137       -1.4425469629
 C          3.3503794547       -1.6196732558       -1.9094437240
 C          2.5317270517       -0.5437940185       -1.5850562668
 C          1.4075014142       -0.7500954246       -0.8032347017
 H          0.7654428172        0.0885772668       -0.5851291123
 N          2.8179224868        0.7547295538       -2.0312228283
 S          2.4793366772        2.0642540050       -1.0469204776
 O          1.0610229066        2.3209112028       -1.0126630683
 O          3.2972481515        3.1296606222       -1.5880012622
 C          3.0971170972        1.5970954372        0.5603243028
 C          4.4707491368        1.5533478072        0.7108633601
 C          5.0040963751        1.1519409058        1.9236793697
 C          4.1576516675        0.7955325179        2.9631609355
 C          2.7831326724        0.8489037906        2.7980460747
 C          2.2419859865        1.2534477504        1.5867639203
 H          1.1732468856        1.2952387226        1.4436516239
 H          2.1162738420        0.5743191117        3.5999014046
 H          4.5702319436        0.4771682390        3.9074926649
 H          6.0734962284        1.1152707189        2.0546366520
 H          5.0933215406        1.8508625490       -0.1172735081
 H          3.6991284481        0.8600843798       -2.5114979417
 H          4.2229614908       -1.4690680911       -2.5261122072
 H          3.6485630184       -3.7194004329       -1.6974383408
 H          1.6732817472       -4.0647479864       -0.2825388575
 H          0.1409331728       -1.7357859443        1.5582808610
 C         -0.6201684937       -3.5582819725        0.7357768641
 C         -0.0397475344       -4.4354416680        1.8036566074
 C         -1.4346231725       -3.9072803923        1.9445117375
 H         -2.2629590428       -4.5898558266        1.8284076823
 H         -1.6151351155       -3.1219120574        2.6641306647
 H          0.0885584135       -5.4865318199        1.5933079387
 H          0.7259854648       -4.0135929646        2.4368647767
 H         -0.9039220073       -4.0133356925       -0.2061410833
