  62
        -98.93439641
 C         -2.5361297977       -1.1671429744       -0.1676040166
 C         -2.4740122814        0.2449011425       -0.1677011143
 C         -3.6983320002        0.9554446677        0.2464998664
 C         -4.7874942280        0.2484872952        0.6018754645
 C         -6.1447900358        0.6938446694        1.1055841439
 C         -6.5965356141        2.1447150531        0.9600139335
 C         -6.8244002362        2.6025440468       -0.4799116618
 H         -7.0541503054        3.6702006206       -0.4658000144
 H         -7.6977716682        2.0793880837       -0.8773415157
 C         -5.6634115974        2.3568946384       -1.4402297664
 H         -5.9570837846        2.7353901756       -2.4230470845
 H         -5.4957647257        1.2832076891       -1.5462939417
 C         -4.3457542729        3.0290237173       -1.0586377248
 H         -4.5087254040        4.0973897172       -0.9040381176
 H         -3.6613662721        2.9141704230       -1.9033714270
 C         -3.6434643183        2.4547372990        0.1847550549
 H         -4.0381957684        2.8905753911        1.0996697666
 H         -2.5833050262        2.7196565667        0.1284257154
 H         -5.9011634008        2.8089336336        1.4647973821
 H         -7.5511966376        2.2263951237        1.4868929469
 H         -6.8722400513        0.0418497647        0.6117036819
 H         -6.1674923346        0.4300463363        2.1688651057
 O         -4.7913478922       -1.1174213314        0.6009579155
 C         -3.6847198394       -1.8537966113        0.2204335063
 O         -3.8453537409       -3.0900088152        0.2716608344
 H          1.2416249119       -1.1530025784       -1.1764938345
 C          1.0711267231       -1.2656120410       -0.1173112157
 C         -0.1691214336       -1.6753267381        0.3419241983
 C         -0.3599287735       -1.8054736244        1.7154650688
 C          0.6630668888       -1.5257453144        2.5997091684
 C          1.9021508846       -1.1160858236        2.1371896279
 C          2.1038599224       -0.9830025645        0.7711373052
 N          3.3653370605       -0.6038717488        0.2743312459
 S          4.2409514907        0.6005752928        1.0685159851
 O          4.7557722016        0.0581311963        2.3009355553
 O          3.4553502310        1.8088915685        1.1890156670
 C          5.5770863893        0.8333711595       -0.0873269938
 C          5.5441593374        1.9004325818       -0.9644598514
 C          6.5808271716        2.0537538970       -1.8719733436
 C          7.6245253069        1.1408579522       -1.8885771744
 C          7.6428955758        0.0740899718       -1.0020754536
 C          6.6108764462       -0.0839909742       -0.0911411870
 H          6.5874208433       -0.8907185634        0.6224614205
 H          8.4570039885       -0.6324314111       -1.0173709440
 H          8.4298368800        1.2632996289       -2.5955705133
 H          6.5707123200        2.8835623812       -2.5602816245
 H          4.7162109049        2.5894124354       -0.9110132508
 H          3.3308154207       -0.4073409436       -0.7173086903
 H          2.7047507678       -0.8881509605        2.8191925867
 H          0.4980207025       -1.6263583091        3.6623089301
 H         -1.3282320058       -2.1231800572        2.0793051909
 C         -1.3253808079       -1.9858573974       -0.5781942072
 H         -1.6056771140       -3.0378242265       -0.4229076720
 C         -1.0212066708       -1.7744828772       -2.0463122237
 C         -0.2919718570       -2.8283325391       -2.8230379410
 C         -1.7530959206       -2.5971962514       -3.0619557044
 H         -2.0584387906       -2.1258309121       -3.9841079287
 H         -2.4568452917       -3.3290299128       -2.6926747983
 H         -0.0002663128       -3.7240257339       -2.2959855243
 H          0.4050210148       -2.5181569326       -3.5869938844
 H         -0.8339219988       -0.7344712967       -2.2880322021
 O         -1.4440096940        0.8914181164       -0.4953613728
