  62
        -98.94220432
 C          2.5314511970        0.5204430026       -0.5032036300
 C          1.5081673739       -0.3026950577       -1.0332505027
 C          1.6921547267       -1.7506818292       -0.8648082346
 C          2.8017530445       -2.2120012492       -0.2613227318
 C          3.0835786629       -3.6562560825        0.0312478307
 C          2.5689530706       -4.0515041793        1.4226731765
 C          1.1277886755       -3.6215652254        1.7011769764
 H          0.8676150369       -3.9861612305        2.6975856436
 H          1.0736494227       -2.5304537216        1.7416240073
 C          0.0984648858       -4.1372229973        0.6858774203
 H          0.5152151170       -4.9782227056        0.1295452879
 H         -0.7729628930       -4.5053175808        1.2313306348
 C         -0.4076739877       -3.0766122498       -0.2938260946
 H         -0.7324158897       -2.1942300499        0.2659768080
 H         -1.2864978402       -3.4789530371       -0.8057632330
 C          0.5962757580       -2.6452896973       -1.3712421149
 H          1.0132405138       -3.5290073282       -1.8583453197
 H          0.0538243807       -2.0633187283       -2.1213598767
 H          2.6514372654       -5.1351021303        1.5256684538
 H          3.2125432816       -3.5888516420        2.1745619786
 H          2.6132301002       -4.2750911331       -0.7302468236
 H          4.1634549454       -3.8100895736       -0.0028922949
 O          3.7842847946       -1.3951680231        0.1976999172
 C          3.6572869980       -0.0194428159        0.1259715787
 O          4.6046493267        0.6096356866        0.6376994482
 H         -0.2870872899        2.2533827428       -0.9005572225
 C         -0.0250006039        2.3141381519        0.1435313280
 C          1.3088389291        2.3146317049        0.5226781154
 C          1.6158124999        2.3900579799        1.8783908592
 C          0.6134725716        2.4288552579        2.8306815035
 C         -0.7151353412        2.3516124192        2.4506660973
 C         -1.0272351604        2.2842917905        1.1009504426
 N         -2.3765506086        2.0951810825        0.7268609096
 S         -2.9633871696        0.5671910585        1.1853017430
 O         -4.0109384227        0.7738201958        2.1599147868
 O         -1.8680945891       -0.2657454422        1.6236033983
 C         -3.6715259330       -0.0830380886       -0.3181371555
 C         -2.8226041585       -0.3929153989       -1.3643242847
 C         -3.3675632597       -0.9057476730       -2.5314935727
 C         -4.7373474720       -1.0961955668       -2.6344317475
 C         -5.5739618731       -0.7757535732       -1.5761060144
 C         -5.0383649972       -0.2638709289       -0.4048933250
 H         -5.6458956683       -0.0017933584        0.4458448649
 H         -6.6386327296       -0.9233954557       -1.6589075513
 H         -5.1532664249       -1.4965413886       -3.5455550227
 H         -2.7145984159       -1.1517849353       -3.3538092564
 H         -1.7579116156       -0.2382649874       -1.2622774136
 H         -2.5039404937        2.2124448351       -0.2701442569
 H         -1.5117435224        2.3072242502        3.1774064729
 H          0.8693311725        2.4842472028        3.8784380771
 H          2.6543075997        2.3776111242        2.1802996208
 C          2.4048467099        2.0389017223       -0.4773687536
 H          3.3519762862        2.4191343230       -0.0744672839
 C          2.1757058063        2.6401920952       -1.8467026422
 C          2.3294520864        4.1200237834       -2.0259873605
 C          3.3440958936        3.1848218721       -2.6098836781
 H          3.3665050725        3.0500274444       -3.6808278464
 H          4.3167105473        3.1283943459       -2.1431589881
 H          2.6129145396        4.6988455567       -1.1598646918
 H          1.6560255456        4.6319345138       -2.6960823001
 H          1.4076410999        2.1371439572       -2.4191474173
 O          0.4848183960        0.1301799616       -1.6260879115
