  62
        -98.93203598
 C         -2.1566487800       -1.1173851599        0.0790564106
 C         -3.0719273299       -0.5094718992        0.9714199802
 C         -3.9940566298        0.4935014705        0.4071928896
 C         -3.8680743698        0.8365513597       -0.8870993906
 C         -4.6854576597        1.8132468092       -1.6947227812
 C         -5.0480939795        3.1455639397       -1.0212700521
 C         -6.5280687295        3.2592856801       -0.6502441521
 H         -6.7945928694        4.3173106402       -0.5989274928
 H         -7.1217736196        2.8126647797       -1.4505536717
 C         -6.9172429795        2.6212492311        0.6822057884
 H         -6.5211047594        3.2244939516        1.5020342679
 H         -8.0069179995        2.6489527613        0.7560685084
 C         -6.4496249297        1.1776625611        0.8758433893
 H         -6.5740601498        0.6099897206       -0.0458913903
 H         -7.0947967797        0.7141341917        1.6251597296
 C         -4.9995966497        1.0626227213        1.3704630593
 H         -4.6453817795        2.0366877215        1.7200256986
 H         -4.9579114697        0.3993665619        2.2401675597
 H         -4.4231698195        3.3010725902       -0.1432275522
 H         -4.8175252295        3.9458729392       -1.7263837326
 H         -4.0912811897        2.0016475786       -2.5919164314
 H         -5.5956971498        1.3068082391       -2.0262969408
 O         -2.9216639099        0.2780420990       -1.6933456803
 C         -2.0513364400       -0.7068620608       -1.2501333897
 O         -1.2564262901       -1.1044985715       -2.1199462195
 H          0.1491714902        0.0213683205        1.1555853497
 C          0.7538583601       -0.6805072199        0.5925890602
 C          0.1975575999       -1.8981545201        0.2178550410
 C          0.9827956598       -2.7897877407       -0.4995106785
 C          2.2830228798       -2.4594078710       -0.8407303787
 C          2.8271297600       -1.2421614009       -0.4768229596
 C          2.0528616401       -0.3439718903        0.2464377899
 N          2.5941285003        0.9022894499        0.6100179790
 S          4.0774744903        0.9231919902        1.3972482089
 O          4.2912680702       -0.2894059593        2.1528796997
 O          4.0874099005        2.1592519007        2.1494043581
 C          5.2659931203        1.0391489992        0.0769320488
 C          6.2537303802        0.0819847890       -0.0485122306
 C          7.1716484801        0.1981410782       -1.0808917207
 C          7.0866019502        1.2639163376       -1.9635571014
 C          6.0904444103        2.2186655878       -1.8216446820
 C          5.1704351204        2.1089549686       -0.7912802419
 H          4.3841233205        2.8305791888       -0.6440380523
 H          6.0273303504        3.0462221874       -2.5098330226
 H          7.8008871602        1.3516154570       -2.7669722215
 H          7.9471879500       -0.5424680620       -1.1926769203
 H          6.2777138101       -0.7319281905        0.6585463199
 H          1.9370059204        1.5088992303        1.0785651687
 H          3.8365230200       -0.9796055112       -0.7481689598
 H          2.8793204097       -3.1592561515       -1.4060580683
 H          0.5711867697       -3.7354158008       -0.8109560778
 C         -1.2246706901       -2.1785223996        0.6351166113
 H         -1.2830506500       -2.0442733789        1.7288899312
 C         -1.6673370003       -3.6068507998        0.3548659322
 C         -3.1122304603       -3.9390590097        0.1350704625
 C         -2.1371620604       -4.0530364206       -0.9961354575
 H         -1.8598006205       -5.0411896809       -1.3331865968
 H         -2.1683187103       -3.3155614711       -1.7823743279
 H         -3.8178052602       -3.1208952597        0.1219199620
 H         -3.5026322304       -4.8447220794        0.5745217731
 H         -1.0942584703       -4.3259194195        0.9324901427
 O         -3.1210623098       -0.7935742284        2.1995651504
