  62
        -98.94083239
 C         -0.4766416108       -1.7968529080        0.6743879117
 C         -1.3047323735       -1.8612171757       -0.4702155936
 C         -2.5889256402       -1.1420074514       -0.3882006503
 C         -2.8785893780       -0.4330792669        0.7163429580
 C         -4.1273709533        0.3493015260        1.0406255989
 C         -4.7891026169        1.1469932386       -0.0889874269
 C         -3.8111477137        1.7874558731       -1.0844005201
 H         -4.0464714429        2.8484942747       -1.1798556875
 H         -2.7908001287        1.7083320854       -0.7068938252
 C         -3.8794654687        1.1640141351       -2.4797251540
 H         -4.9263162249        1.0032199567       -2.7466050995
 H         -3.4619490307        1.8694176827       -3.2018158595
 C         -3.1158010161       -0.1495530400       -2.6361770376
 H         -2.0397412142        0.0355662935       -2.5741201137
 H         -3.3154181942       -0.5404901058       -3.6368477567
 C         -3.4630303717       -1.2369224214       -1.6062514132
 H         -4.5186123401       -1.2113953554       -1.3469897296
 H         -3.2405336558       -2.2081232120       -2.0568300567
 H         -5.4838339411        0.5065836468       -0.6301669021
 H         -5.3887152001        1.9248319398        0.3869442842
 H         -4.8592981501       -0.3470914739        1.4612271298
 H         -3.8345111028        1.0277476042        1.8452012028
 O         -2.0263778575       -0.3634261974        1.7798314981
 C         -0.8213588441       -1.0417067338        1.7930801622
 O         -0.1557550150       -0.8914208860        2.8386488149
 H          1.3642520867        0.0681479368        0.3420402019
 C          1.8848898802       -0.5186086885       -0.4008496872
 C          1.7479127922       -1.9016569058       -0.3882395478
 C          2.4246864764       -2.6457682836       -1.3446250082
 C          3.2094239414       -2.0120406587       -2.2931415184
 C          3.3525528566       -0.6371113794       -2.2940639753
 C          2.6855312229        0.1172639577       -1.3342043465
 N          2.7944107237        1.5151230099       -1.3079943354
 S          2.8303942303        2.3329646434        0.1528603313
 O          3.4872586470        3.5850103036       -0.1613913143
 O          3.4448197066        1.5394822095        1.1911095170
 C          1.1266517253        2.6769220306        0.5326197156
 C          0.4018147949        3.4258495463       -0.3743542236
 C         -0.9116374852        3.7480852845       -0.0778712900
 C         -1.4764695019        3.3200149675        1.1151414516
 C         -0.7364665144        2.5694449190        2.0143102453
 C          0.5796820264        2.2450078595        1.7235161646
 H          1.1765562500        1.6508446791        2.3988225452
 H         -1.1719683350        2.2194660476        2.9369074355
 H         -2.4997482359        3.5721671190        1.3449753006
 H         -1.4929289171        4.3295223921       -0.7752007876
 H          0.8796145605        3.7463214327       -1.2851833329
 H          3.4463803256        1.9056742437       -1.9725498257
 H          3.9715507014       -0.1472975001       -3.0303017281
 H          3.7241745489       -2.5995293156       -3.0383018945
 H          2.3329633327       -3.7192369292       -1.3538333580
 C          0.8670043603       -2.5031102296        0.6808602729
 H          1.3259180731       -2.2755243361        1.6549473435
 C          0.6913061963       -4.0017267191        0.5625537651
 C          1.7286211348       -4.9255282132        1.1242186394
 C          0.3968856294       -4.7950367935        1.7986903045
 H         -0.3000206534       -5.6168095336        1.7308107761
 H          0.3463339063       -4.2562885038        2.7340809341
 H          1.9461261724       -5.8413274447        0.5956294926
 H          2.5861078554       -4.4799740788        1.6060745586
 H          0.1846385290       -4.2922670792       -0.3500959259
 O         -1.0002761777       -2.5012948966       -1.5098265540
