  62
        -98.93876799
 C          1.9133300802        0.6572627002       -0.4894028604
 C          2.9951217202        1.3701364400        0.0776625898
 C          4.3368370602        0.7948108999       -0.1187143903
 C          4.4589735401       -0.3507969199       -0.8115377506
 C          5.7177150800       -1.1288208899       -1.0794296108
 C          5.9219163299       -2.2166625702       -0.0113217311
 C          6.6723682999       -1.7587168007        1.2387124190
 H          6.6332297898       -2.5788280809        1.9593388188
 H          7.7220715199       -1.5944592507        0.9863429991
 C          6.1251155700       -0.4930311208        1.9037505794
 H          6.4745995799       -0.4806974211        2.9379745994
 H          5.0347451400       -0.5350510007        1.9315505093
 C          6.5814013701        0.7990866094        1.2098995398
 H          7.3866465101        0.5643503795        0.5140903697
 H          7.0033952001        1.4787488391        1.9531248300
 C          5.4764705202        1.5752034097        0.4780336000
 H          4.9991188202        2.2717751195        1.1743553601
 H          5.9310009503        2.1851222498       -0.3098068998
 H          4.9369213799       -2.5993266402        0.2686666587
 H          6.4786050199       -3.0441611002       -0.4559291313
 H          5.5822373300       -1.6141126296       -2.0482786610
 H          6.5764617301       -0.4666271400       -1.1364412406
 O          3.3891334401       -1.0078458097       -1.3386519509
 C          2.0963858101       -0.5326611496       -1.1931216708
 O          1.2259489801       -1.2450362594       -1.7277833610
 H         -1.6925132199       -0.2920914393       -1.1203133108
 C         -1.3996992399       -0.4621296097       -0.0986195509
 C         -0.3222030499        0.2115025601        0.4526681094
 C          0.0377914700       -0.0666202803        1.7701007093
 C         -0.6565170401       -1.0024530305        2.5102488190
 C         -1.7313801901       -1.6756547802        1.9549884388
 C         -2.0991755100       -1.4070740898        0.6424825288
 N         -3.1683001101       -2.0993526296        0.0527143586
 S         -4.3147856700       -1.3123384092       -0.8712468712
 O         -5.3817359500       -2.2776346091       -1.0184407616
 O         -3.7321623199       -0.8123933789       -2.0893155511
 C         -4.8633901199        0.0373475405        0.1574821891
 C         -5.8551314300       -0.2075639597        1.0876878290
 C         -6.2492726499        0.8159391301        1.9337614693
 C         -5.6412237198        2.0589507101        1.8418265297
 C         -4.6465173998        2.2879778003        0.9039089398
 C         -4.2502250198        1.2692067105        0.0515070395
 H         -3.4835952598        1.4122331307       -0.6916983904
 H         -4.1759689797        3.2555532403        0.8316145401
 H         -5.9454224798        2.8551838599        2.5027468699
 H         -7.0256622400        0.6421291500        2.6612999992
 H         -6.3080318200       -1.1853247696        1.1176209987
 H         -3.6047120401       -2.7822207297        0.6545307984
 H         -2.2717304302       -2.4140451204        2.5277758785
 H         -0.3625781901       -1.2103894708        3.5279820789
 H          0.8811759600        0.4569898195        2.1992149795
 C          0.5073035802        1.2075212703       -0.3178675703
 H          0.6244098902        2.1090980001        0.3005849599
 C         -0.0796171697        1.6091965307       -1.6533989502
 C         -1.1491489396        2.6570396208       -1.7138831600
 C          0.2332702104        2.9677256208       -2.2024358798
 H          0.3971334204        3.0688955811       -3.2648292898
 H          0.8551767804        3.6147450406       -1.6011045196
 H         -1.4626919196        3.1019763205       -0.7814397399
 H         -1.9379720396        2.5452558811       -2.4433010800
 H         -0.1284312798        0.7891845009       -2.3611851405
 O          2.8463403802        2.4396347798        0.7285003401
