  62
        -98.93044004
 C          2.6083035299        1.3638229560       -0.1337088758
 C          2.2501337884        0.0911885453       -0.6426833522
 C          3.3568098907       -0.8648983508       -0.8437478311
 C          4.6157622139       -0.5014054621       -0.5499814561
 C          5.8879166736       -1.2926588363       -0.7232805845
 C          5.8683508247       -2.7669202267       -0.2950137304
 C          4.9433466678       -3.0891046653        0.8877289270
 H          5.5040248635       -3.6586362298        1.6313116847
 H          4.6110448170       -2.1669795077        1.3678974048
 C          3.7236421308       -3.9212094752        0.4836978329
 H          4.0470653411       -4.7032157881       -0.2069127630
 H          3.3252153527       -4.4153237209        1.3731992691
 C          2.5732632058       -3.1395963635       -0.1503258607
 H          1.8265535558       -3.8597877653       -0.4941051619
 H          2.0854352504       -2.5161741610        0.6049928190
 C          2.9605373353       -2.2299216434       -1.3278315508
 H          2.0704305036       -2.0870377086       -1.9464896867
 H          3.7390225232       -2.6834095589       -1.9366855044
 H          5.5868460206       -3.3895090203       -1.1431686196
 H          6.8944506310       -3.0336419431       -0.0365752257
 H          6.6382953361       -0.7525140697       -0.1411183623
 H          6.1876072369       -1.2293931254       -1.7733379527
 O          4.9145732132        0.7316887392       -0.0520045603
 C          3.9317876580        1.6744220877        0.1890345159
 O          4.3569064714        2.7365947314        0.6859789974
 O          1.0755233186       -0.2469329500       -0.9396224305
 C          1.5771740637        2.4389199501        0.1703243354
 C          0.4386051090        1.8369548085        0.9553431589
 C          0.6489189459        1.4920055613        2.2872685071
 C         -0.3559608602        0.9014766775        3.0295802631
 C         -1.5903872915        0.6415324464        2.4601328745
 C         -1.8058180740        0.9711207834        1.1292793487
 C         -0.7961803885        1.5731157072        0.3873521515
 H         -0.9642563298        1.8031365378       -0.6531138992
 N         -3.0577264400        0.7297607332        0.5341951442
 S         -3.9162818147       -0.6551660398        0.9705343200
 O         -4.5347786576       -0.4195574195        2.2525025286
 O         -3.0811511391       -1.8319397857        0.8828145995
 C         -5.1644672112       -0.6729170534       -0.3007877690
 C         -4.9909042591       -1.4762064266       -1.4115358295
 C         -5.9565332940       -1.4618027712       -2.4059794525
 C         -7.0702602545       -0.6459599205       -2.2749040988
 C         -7.2295890496        0.1559254018       -1.1543581246
 C         -6.2691163093        0.1449041152       -0.1556474068
 H         -6.3539157743        0.7431948500        0.7363199619
 H         -8.0977726044        0.7874070636       -1.0560136358
 H         -7.8197223736       -0.6371729321       -3.0505338415
 H         -5.8362216312       -2.0855492303       -3.2771685690
 H         -4.1117516221       -2.0983731142       -1.4681670845
 H         -3.0148929165        0.8190477057       -0.4720463628
 H         -2.3787427487        0.1714646358        3.0255398780
 H         -0.1786095799        0.6357873835        4.0613256529
 H          1.6176743992        1.6824174383        2.7301103908
 H          2.1000490378        3.1502038128        0.8299419304
 C          1.1149439220        3.2355471282       -1.0405103704
 C          2.0870044684        3.6071369880       -2.1193763826
 C          0.9786020960        2.6423328573       -2.4091471587
 H          0.1605097172        2.9782503173       -3.0299349548
 H          1.2214606955        1.5992648221       -2.5341780172
 H          2.0333320714        4.5989809591       -2.5421442432
 H          3.0929275560        3.2220643036       -2.0342235893
 H          0.3881822856        3.9938071598       -0.7645080899
