  62
        -98.94439263
 C         -1.8339456709       -1.0870184765       -0.1131052364
 C         -2.3230780954        0.0318103071       -0.8293895293
 C         -3.7846667378        0.1705161937       -0.8675612541
 C         -4.5619818695       -0.7519998962       -0.2718662597
 C         -6.0665261016       -0.7594889707       -0.2471314367
 C         -6.6772525535        0.1103432059        0.8602405763
 C         -6.5723796007        1.6193173870        0.6352552577
 H         -6.9591568447        1.8660288345       -0.3539703398
 H         -7.2243731993        2.0983305851        1.3684170817
 C         -5.1542843842        2.1862987083        0.7915846481
 H         -4.5298319451        1.4658335652        1.3247373469
 H         -5.1888047926        3.0920071473        1.4011899140
 C         -4.4690913211        2.5529757948       -0.5249707908
 H         -3.4580752526        2.9029077872       -0.3000735657
 H         -5.0102868003        3.3715928081       -1.0047410216
 C         -4.3555239512        1.3920854836       -1.5217187321
 H         -5.3297521170        1.1732861967       -1.9584640488
 H         -3.6719357192        1.6913465798       -2.3201908799
 H         -6.2038621217       -0.1499777889        1.8096796412
 H         -7.7352790383       -0.1515770491        0.9336502302
 H         -6.3693832220       -1.7949504415       -0.0774895960
 H         -6.4503483686       -0.4395999439       -1.2162082039
 O         -4.0508510711       -1.8285024129        0.3831011396
 C         -2.6818827492       -2.0098120708        0.4989160766
 O         -2.3497541637       -3.0142218662        1.1604571565
 O         -1.5840459455        0.8705143025       -1.4075904724
 C         -0.3368159908       -1.3147791623        0.0030237122
 C          0.3188933556       -0.0946429808        0.6005355763
 C         -0.1904623977        0.4141559063        1.7936549982
 C          0.3535961310        1.5436835008        2.3711357826
 C          1.4279721204        2.1842579797        1.7783881558
 C          1.9502504559        1.6800203022        0.5940724649
 C          1.4032219377        0.5402503899        0.0168165443
 H          1.8162971406        0.1835544545       -0.9115562031
 N          3.0317045989        2.3159345726       -0.0279839612
 S          4.1703492331        1.4547170640       -0.8838389079
 O          5.3363566153        2.3130169918       -0.8894205130
 O          3.6645217917        1.0809835465       -2.1805249686
 C          4.5039990700       -0.0088279807        0.0825595662
 C          4.7123656882        0.1162519869        1.4420093548
 C          4.9834436810       -1.0207411417        2.1855427452
 C          5.0473788516       -2.2572347020        1.5613504045
 C          4.8455173106       -2.3653774559        0.1945577087
 C          4.5705120210       -1.2312635339       -0.5528656668
 H          4.4006298157       -1.2704158745       -1.6165418305
 H          4.8976854538       -3.3264601764       -0.2916867251
 H          5.2567845070       -3.1411318312        2.1430094467
 H          5.1430827539       -0.9395833217        3.2486313716
 H          4.6635265254        1.0889282757        1.9031812602
 H          3.4296059598        3.0938518345        0.4757029651
 H          1.8494671461        3.0738938423        2.2209471359
 H         -0.0597172049        1.9305736185        3.2904034837
 H         -1.0322677373       -0.0857576813        2.2538871812
 H         -0.2093558874       -2.1518757341        0.7048862677
 C          0.2273247881       -1.7192957238       -1.3422978042
 C          1.4371422872       -2.5988162966       -1.4208351832
 C          0.0888782437       -3.1456073122       -1.7796868439
 H         -0.1285166044       -3.3485339836       -2.8176646453
 H         -0.3890149425       -3.8282248317       -1.0919426037
 H          2.1446345762       -2.4235593297       -2.2170576308
 H          1.8849544158       -2.9170677978       -0.4916607888
 H          0.1033947261       -0.9508200244       -2.0973160494
