  62
        -98.93379032
 C          2.4242795009        1.0709027846        0.3605487609
 C          2.3755646467       -0.0894493538        1.1737344854
 C          3.4114390287       -1.1121608177        0.9454824294
 C          4.3452262841       -0.8908026367        0.0042854432
 C          5.4670988262       -1.7989880814       -0.4191648885
 C          5.0429409722       -2.6777245124       -1.6078834281
 C          4.3598501933       -3.9901061404       -1.2263592925
 H          4.0027879182       -4.4518977097       -2.1496335377
 H          5.0973924170       -4.6641571805       -0.7858292754
 C          3.1819456853       -3.8550166764       -0.2579158267
 H          2.5663407161       -4.7520720381       -0.3496873629
 H          2.5578221654       -3.0076323092       -0.5495849318
 C          3.6193005299       -3.6999635757        1.2063303110
 H          3.0968209727       -4.4367489655        1.8202415320
 H          4.6821234669       -3.9256740356        1.2892558938
 C          3.3319575467       -2.3274124007        1.8292956937
 H          2.3109121498       -2.3150942158        2.2248355332
 H          3.9972804046       -2.1778653699        2.6867736106
 H          4.3763622087       -2.0862349318       -2.2406933941
 H          5.9287365247       -2.9174093814       -2.1994455593
 H          5.8104757346       -2.4032389036        0.4150219065
 H          6.2828509801       -1.1487938915       -0.7418829468
 O          4.3583437986        0.2378546976       -0.7541067955
 C          3.4108490622        1.2375582380       -0.6113943516
 O          3.5783648500        2.1936211285       -1.3923149470
 O          1.5025479117       -0.2625156074        2.0686270608
 C          1.3545723307        2.1251945451        0.5939676124
 C          0.2796930308        2.0391866939       -0.4638311461
 C          0.4841022720        2.5030908658       -1.7594002989
 C         -0.5202774827        2.3981335123       -2.7040141048
 C         -1.7405026156        1.8326213689       -2.3798434556
 C         -1.9566616182        1.3685525485       -1.0871371239
 C         -0.9474501321        1.4758738798       -0.1405114620
 H         -1.1181924854        1.0954449351        0.8558955736
 N         -3.2056255483        0.8340076664       -0.7260758898
 S         -3.2813581544       -0.4145059199        0.4074233543
 O         -3.1190474899        0.1442408062        1.7256191116
 O         -2.3799698613       -1.4823676480        0.0353835992
 C         -4.9762562914       -0.9230790172        0.1848238620
 C         -5.9737466187       -0.1149978383        0.6978729555
 C         -7.2965285406       -0.4813474861        0.5087169326
 C         -7.5989251910       -1.6437865221       -0.1853474651
 C         -6.5875494745       -2.4460486934       -0.6913950355
 C         -5.2619164402       -2.0839359877       -0.5077679317
 H         -4.4422011774       -2.6786950074       -0.8778190559
 H         -6.8253338701       -3.3508323343       -1.2271945229
 H         -8.6293234486       -1.9274056715       -0.3304661528
 H         -8.0853929507        0.1386152212        0.9030037169
 H         -5.6901800139        0.7728284498        1.2384451099
 H         -3.7841948468        0.6273480608       -1.5295110630
 H         -2.5219008768        1.7525333052       -3.1203405713
 H         -0.3484586233        2.7569320053       -3.7076746420
 H          1.4432571781        2.9182346464       -2.0251336448
 H          0.8923360721        1.8523688167        1.5529636852
 C          1.9135887254        3.5291179882        0.7147696792
 C          1.0773819478        4.5841010189        1.3723506806
 C          2.2938956211        4.0508057334        2.0662918281
 H          3.1639348044        4.6850079446        2.1465662252
 H          2.1522008160        3.3946764267        2.9130766263
 H          1.1090937970        5.5874762094        0.9767905249
 H          0.1093389088        4.2880479471        1.7485283915
 H          2.5338286055        3.8232034697       -0.1213652719
