  62
        -98.94462110
 C         -1.7309241925        0.3902041646       -0.2257184330
 C         -2.8544833979        0.3140763429       -1.0926354591
 C         -3.9646167273       -0.5419461017       -0.6583587130
 C         -3.8577257446       -1.2135000219        0.5021513522
 C         -4.9282567931       -2.0813812206        1.0956248196
 C         -5.8394315305       -1.2766582255        2.0330911475
 C         -6.3513640394        0.0292805216        1.4253534422
 H         -5.5075377432        0.7057438874        1.2716717786
 H         -7.0070866144        0.4961768246        2.1634520067
 C         -7.1106651809       -0.1411635119        0.1021082948
 H         -8.0152919833        0.4696137718        0.1364781186
 H         -7.4254929712       -1.1789336514       -0.0137033941
 C         -6.3278063392        0.2919394598       -1.1389269817
 H         -5.9309953037        1.2990783874       -0.9885042665
 H         -7.0235863429        0.3371205429       -1.9809839465
 C         -5.1698970798       -0.6255943685       -1.5518858417
 H         -4.8313554295       -0.3087452254       -2.5426779162
 H         -5.5246115593       -1.6558597266       -1.6241539012
 H         -5.2781574839       -1.0359750095        2.9389105071
 H         -6.6857900113       -1.9055322674        2.3152213632
 H         -4.4485959962       -2.8791790534        1.6654055924
 H         -5.5149803910       -2.5244868541        0.2931914844
 O         -2.7622936815       -1.1362657147        1.2958685956
 C         -1.6786929989       -0.3343829260        0.9649605806
 O         -0.7618724686       -0.3774161425        1.8110385370
 O         -2.9250790634        0.9441685186       -2.1813119808
 C         -0.6022959551        1.3069927307       -0.6666525820
 C          0.5452728455        0.5520074756       -1.2927665389
 C          0.9961574838        0.8622973559       -2.5702027540
 C          2.0807100855        0.1985441370       -3.1181995608
 C          2.7352074934       -0.7908936447       -2.4061028055
 C          2.2843103162       -1.1138614142       -1.1335539485
 C          1.2053958781       -0.4402308053       -0.5821206672
 H          0.8707267454       -0.6909221386        0.4134529166
 N          2.9557319047       -2.1123210981       -0.3880518735
 S          4.4954545715       -1.6668204927        0.1077079025
 O          5.3604631619       -1.6306991477       -1.0440335984
 O          4.8615475007       -2.5947414514        1.1534524963
 C          4.2843641655       -0.0244358427        0.7688676004
 C          4.4680584184        1.0666922562       -0.0562506188
 C          4.2154086369        2.3330768394        0.4451709048
 C          3.7826088396        2.4841272614        1.7534205118
 C          3.5983797880        1.3777130958        2.5679895448
 C          3.8457756671        0.1087178272        2.0708486454
 H          3.7161097619       -0.7764033610        2.6733733096
 H          3.2560840832        1.4976970075        3.5834897570
 H          3.5893927813        3.4708805826        2.1447166112
 H          4.3519730513        3.1956487285       -0.1867944087
 H          4.8082363175        0.9053557362       -1.0658584453
 H          2.4264342603       -2.4002738702        0.4241767881
 H          3.5910303704       -1.3089091568       -2.8077443581
 H          2.4199712591        0.4531566842       -4.1106501601
 H          0.4853303811        1.6252010202       -3.1389338989
 H         -1.0448380743        1.9454927863       -1.4428668053
 C         -0.0790389489        2.1970328131        0.4454628624
 C          0.5468873985        3.5104296211        0.0899851588
 C         -0.7943105181        3.4755110680        0.7577668298
 H         -0.8697400398        3.7833633098        1.7897184461
 H         -1.6663114945        3.7167566194        0.1671025948
 H          1.3974401546        3.8438563269        0.6625409682
 H          0.5840542405        3.7801906565       -0.9542849020
 H          0.3416546008        1.6445999739        1.2757303445
