  62
        -98.94275209
 C          2.6857347857        1.2120629709        0.2133546603
 C          2.6810375956        0.3192693501       -0.8855771630
 C          3.7755339496       -0.6628594792       -0.9161261873
 C          4.6994207482       -0.6557432693        0.0615863219
 C          5.8302429092       -1.6348749520        0.1820676359
 C          5.4256241416       -2.8485903837        1.0306955708
 C          4.0924779650       -3.4738535130        0.6197535256
 H          3.9260048360       -4.3378820267        1.2666601886
 H          3.2874379584       -2.7629678377        0.8204834714
 C          4.0237935463       -3.9143813597       -0.8491384268
 H          3.5727515041       -4.9077583136       -0.8959847738
 H          5.0311893387       -3.9966347594       -1.2588094246
 C          3.1852418476       -3.0019353609       -1.7461066069
 H          2.2046540275       -2.8402826172       -1.2910559316
 H          3.0242302465       -3.5155272785       -2.6977264850
 C          3.7994574076       -1.6328158769       -2.0638614480
 H          4.8170426639       -1.7630367067       -2.4376821925
 H          3.1981905776       -1.1750019042       -2.8548202595
 H          5.3476268421       -2.5313347890        2.0731465228
 H          6.2173896745       -3.5967604758        0.9616867995
 H          6.6712280291       -1.1314739139        0.6618914300
 H          6.1322451158       -1.9577444065       -0.8123145316
 O          4.6783345065        0.2269193660        1.0928928874
 C          3.6684522244        1.1661652026        1.2045782242
 O          3.7552846195        1.8963754448        2.2122606960
 O          1.8173284419        0.3353506404       -1.8013090839
 C          1.5894475534        2.2525791831        0.3799103140
 C          0.2906012507        1.5352125451        0.6576131943
 C          0.0790617458        1.0020324678        1.9266745001
 C         -1.0796294328        0.3076334128        2.2165811144
 C         -2.0481656474        0.1202571598        1.2450850764
 C         -1.8458849917        0.6446599017       -0.0237050120
 C         -0.6860520499        1.3558093823       -0.3083761880
 H         -0.5375187147        1.7487729682       -1.3016695945
 N         -2.8114296700        0.4350712483       -1.0211151224
 S         -4.4226154060        0.7322110245       -0.6718437809
 O         -5.0475971299        0.9837226304       -1.9520573817
 O         -4.5662696085        1.7671605005        0.3259924728
 C         -5.0197007568       -0.8185284259       -0.0315010989
 C         -4.8205392700       -1.9572170635       -0.7873023108
 C         -5.2898355029       -3.1693740657       -0.3070956324
 C         -5.9494521108       -3.2219364904        0.9119416233
 C         -6.1448972210       -2.0692420479        1.6570363802
 C         -5.6768556157       -0.8535952137        1.1827644954
 H         -5.8001139814        0.0670641166        1.7306763188
 H         -6.6581816700       -2.1120722830        2.6042442455
 H         -6.3134688908       -4.1669741616        1.2830823179
 H         -5.1391646171       -4.0680316830       -0.8834466502
 H         -4.3047231427       -1.8747699121       -1.7294886127
 H         -2.5536871184        0.8032710652       -1.9249106469
 H         -2.9522582475       -0.4246503570        1.4625233300
 H         -1.2305678010       -0.0962058151        3.2062428336
 H          0.8423723412        1.1382626093        2.6808662848
 H          1.8549765984        2.8275451478        1.2774004013
 C          1.5328348339        3.1979128831       -0.8014730181
 C          0.7832042973        4.4890113074       -0.6736561473
 C          2.2805204471        4.4940039947       -0.7363194777
 H          2.7581652928        4.8586334688       -1.6333730695
 H          2.8301156335        4.7089505836        0.1685294189
 H          0.2311709446        4.8541182440       -1.5265696113
 H          0.3133161279        4.7002361727        0.2752611165
 H          1.5105731913        2.6893965488       -1.7574180105
