  62
        -98.94268659
 C         -1.6388197424       -1.4514295885        0.2374611493
 C         -1.3228356913       -0.3569149385       -0.5994271903
 C         -1.9557079102        0.9249406519       -0.2608277999
 C         -2.7544595802        0.9937314823        0.8193918301
 C         -3.5113936691        2.2109729428        1.2696836204
 C         -4.7484505289        2.4328285943        0.3760485004
 C         -4.7012604376        3.7129703245       -0.4582236992
 H         -5.5065403076        3.6546060855       -1.1934915693
 H         -4.9075097769        4.5668010945        0.1904892611
 C         -3.3805761873        3.9838369135       -1.1845692290
 H         -3.5779136066        4.7631956140       -1.9236604888
 H         -2.6531730470        4.3958309427       -0.4833282888
 C         -2.7487551484        2.7793196232       -1.8934939794
 H         -3.5067679490        2.0330553940       -2.1317722397
 H         -2.3309400380        3.1245665231       -2.8411868992
 C         -1.5997221390        2.1073822219       -1.1189759795
 H         -0.8753619093        1.7187115115       -1.8410215495
 H         -1.0792436884        2.8497048612       -0.5059475592
 H         -5.6444425189        2.4625288549        0.9978556603
 H         -4.8519202296        1.5691204646       -0.2838766699
 H         -3.8131689894        2.0390225428        2.3033725403
 H         -2.8534450984        3.0771952723        1.2424349007
 O         -3.0297972512       -0.0797950677        1.6060347297
 C         -2.4673936123       -1.3190255181        1.3489020193
 O         -2.7784473332       -2.2090990481        2.1682558490
 H          0.5042723577       -1.2659348909        1.5793871496
 C          1.1112673373       -1.7873044712        0.8531551095
 C          0.5112675766       -2.6397850803       -0.0649617909
 C          1.3217134961       -3.3068529008       -0.9753748110
 C          2.6901424363       -3.0975385120       -0.9821782708
 C          3.2752960070       -2.2061221728       -0.1015290805
 C          2.4740749475       -1.5435732324        0.8210297397
 N          3.0138620383       -0.6121530632        1.7331278600
 S          2.4933891797        0.9771457673        1.6106831005
 O          3.2459057303        1.6924773363        2.6199746308
 O          1.0588804998        1.0417677786        1.7194128104
 C          3.0401709203        1.5008894074       -0.0053251893
 C          4.2136491910        2.2250985563       -0.1002738889
 C          4.6811032414        2.5870031763       -1.3529083788
 C          3.9748168912        2.2115338973       -2.4859772490
 C          2.8030684305        1.4798118084       -2.3728841293
 C          2.3262104701        1.1160767584       -1.1222563095
 H          1.4143187395        0.5489459192       -1.0145889497
 H          2.2487480903        1.1820268191       -3.2485422795
 H          4.3382089015        2.4905464073       -3.4624802988
 H          5.5919544619        3.1569533855       -1.4414897785
 H          4.7253707711        2.4966786756        0.8090002812
 H          4.0243425383       -0.6216205841        1.7720987201
 H          4.3388345372       -2.0219167638       -0.1250129103
 H          3.3064586358       -3.6215869723       -1.6965193910
 H          0.8797731955       -3.9864195101       -1.6856350813
 C         -0.9896809636       -2.7996859290       -0.0170040911
 H         -1.2443330042       -3.4304811391        0.8477395987
 C         -1.5643023740       -3.4302420581       -1.2695806013
 C         -1.6792509754       -4.9198636079       -1.3861462518
 C         -2.9092485646       -4.0859611869       -1.1943846016
 H         -3.5892101044       -3.9664663360       -2.0244635017
 H         -3.3968107647       -4.1016338168       -0.2301306217
 H         -1.5186940657       -5.3760153478       -2.3513872519
 H         -1.3386452660       -5.5151817585       -0.5524635720
 H         -1.3344577634       -2.8604188280       -2.1626525811
 O         -0.5386886313       -0.4468842289       -1.5818157502
