  62
        -98.94468913
 C          2.5753202143        0.8636694175        0.2808174591
 C          2.5096798024       -0.0169689688       -0.8263808999
 C          2.8199936718       -1.4269253302       -0.5482416623
 C          3.1697317011       -1.8004668150        0.6948334856
 C          3.4553431324       -3.2091458136        1.1248268993
 C          2.1913848792       -3.8978598231        1.6572787621
 C          0.9740362933       -3.7691153199        0.7404830312
 H          0.1633256408       -4.3424845423        1.1961348393
 H          0.6418764686       -2.7281133496        0.7080466685
 C          1.1994952410       -4.2646544611       -0.6944957712
 H          0.3305981923       -4.8517859125       -0.9994971836
 H          2.0688047902       -4.9231689054       -0.7308338492
 C          1.3603026688       -3.1476105812       -1.7276525660
 H          1.2582181267       -3.5869581111       -2.7242567625
 H          0.5466417682       -2.4261452986       -1.6042398298
 C          2.6975168283       -2.3951208401       -1.6905534477
 H          3.5222677216       -3.1109123373       -1.6836932533
 H          2.7693736841       -1.7965416641       -2.6034465559
 H          2.4170599081       -4.9545025673        1.8138078091
 H          1.9374545456       -3.4566938845        2.6237438023
 H          4.2028181395       -3.1797640282        1.9196352578
 H          3.8572659850       -3.7665308830        0.2811194854
 O          3.2678229150       -0.9222414586        1.7243463591
 C          2.9418536634        0.4104141309        1.5528073801
 O          3.0307014603        1.0936823028        2.5925451690
 O          2.2107610366        0.3291389349       -2.0026746163
 C          2.1722474519        2.3321762030        0.2144795166
 C          0.6660747690        2.3967469548        0.2977923150
 C          0.0222132601        2.9146032489        1.4155791040
 C         -1.3567592815        2.8588465472        1.5253569920
 C         -2.1191285808        2.2596081541        0.5372994584
 C         -1.4820457169        1.7416406313       -0.5812886169
 C         -0.1076172320        1.8384320181       -0.7098743946
 H          0.3738909322        1.4139313276       -1.5782535359
 N         -2.2417057103        1.0308719652       -1.5492419051
 S         -2.5010946419       -0.5607908265       -1.0399404115
 O         -1.3966377547       -1.0501847471       -0.2455600840
 O         -2.8202896231       -1.3140453012       -2.2333832671
 C         -3.9572005194       -0.4010629669       -0.0301361604
 C         -3.8714506698       -0.5861089033        1.3351656660
 C         -5.0138933419       -0.4284105399        2.1047402786
 C         -6.2134532502       -0.0887556652        1.4979661953
 C         -6.2825976902        0.0932751631        0.1244410397
 C         -5.1445699231       -0.0632657003       -0.6501992377
 H         -5.1506628492        0.0638801693       -1.7198681148
 H         -7.2173958229        0.3574120170       -0.3431086645
 H         -7.0998264975        0.0349603078        2.0999195856
 H         -4.9615005642       -0.5686580358        3.1725112045
 H         -2.9152847360       -0.8437549401        1.7625367146
 H         -1.7689274185        0.9929839647       -2.4436015170
 H         -3.1906400386        2.1833212186        0.6278820065
 H         -1.8410212359        3.2663319618        2.3995570713
 H          0.6150313963        3.3361644160        2.2144656681
 H          2.5827891790        2.7974902523        1.1203199326
 C          2.7143006529        3.0693305744       -0.9924822112
 C          2.7809236896        4.5656827621       -0.9534639334
 C          4.0412236220        3.7571171893       -0.8937623883
 H          4.6912171351        3.7453412731       -1.7556793393
 H          4.5657619625        3.6974660028        0.0488610799
 H          2.5638761482        5.1138395614       -1.8572834132
 H          2.4519566002        5.0569360686       -0.0502793951
 H          2.4704998845        2.5985907870       -1.9352912994
