  62
        -98.93892968
 C         -2.1778150318       -1.0110595372        0.4727166600
 C         -2.3573313853       -0.2349180293       -0.6957044799
 C         -3.1748261705        0.9842204024       -0.5498884113
 C         -3.6486060118        1.3144332112        0.6639142250
 C         -4.5369086980        2.4750733752        1.0175853450
 C         -6.0163966734        2.0547405882        0.9898730239
 C         -6.6931022709        2.1693225451       -0.3754498084
 H         -7.6856447879        1.7223502837       -0.2842286738
 H         -6.8301407875        3.2247159060       -0.6200016365
 C         -5.9534034705        1.4917686389       -1.5319375262
 H         -5.5824616756        0.5166971674       -1.2111257734
 H         -6.6741434655        1.3161640138       -2.3328021389
 C         -4.7943930206        2.3351095324       -2.0843619267
 H         -4.8705618159        3.3482344495       -1.6898307446
 H         -4.8918870208        2.4178151658       -3.1687785260
 C         -3.3892596244        1.7787078376       -1.8091911633
 H         -3.1015984951        1.0981050505       -2.6169130532
 H         -2.6665680063        2.6020035298       -1.8282127529
 H         -6.0777436565        1.0233714386        1.3464859053
 H         -6.5702257500        2.6776442313        1.6951269495
 H         -4.2767039154        2.7665374994        2.0374506804
 H         -4.3533276533        3.3165764455        0.3561397548
 O         -3.4048286269        0.5649146487        1.7750887261
 C         -2.6745786480       -0.6073917352        1.7108670295
 O         -2.5285904544       -1.1856590885        2.8077986623
 H          0.2167682653       -0.5073731980        1.5354801464
 C          0.7249127290       -1.0102932665        0.7207289187
 C          0.0460804264       -1.9932087062        0.0101531595
 C          0.7059662279       -2.6316483321       -1.0306136890
 C          2.0052717037       -2.2795742206       -1.3548520063
 C          2.6753894864       -1.2991978725       -0.6470394993
 C          2.0263603850       -0.6579959689        0.4005482598
 N          2.7042393705        0.3263423926        1.1425623204
 S          3.4546421792        1.5733875989        0.3028535042
 O          3.5171900419        2.6729515861        1.2417406095
 O          2.7980674262        1.8397617242       -0.9560770160
 C          5.1021074670        0.9594362837        0.0200678868
 C          5.6019417939        0.8939402789       -1.2657460681
 C          6.8888891625        0.4165179382       -1.4605191302
 C          7.6487644705        0.0164622825       -0.3720243016
 C          7.1328944248        0.0915225098        0.9133667639
 C          5.8478174959        0.5689328644        1.1151545012
 H          5.4109658296        0.6474715572        2.0966701129
 H          7.7268446567       -0.2201165714        1.7573801755
 H          8.6490342621       -0.3562017663       -0.5263877904
 H          7.2915459569        0.3579795504       -2.4589691193
 H          4.9716201986        1.2108781384       -2.0814859226
 H          2.1592511867        0.6983510369        1.9072632352
 H          3.6855176043       -1.0214601363       -0.8995764651
 H          2.5038841750       -2.7777970437       -2.1721734675
 H          0.2004014042       -3.3964354658       -1.5963847194
 C         -1.3750711753       -2.2994641960        0.4182697741
 H         -1.3539449121       -2.6844902586        1.4484144078
 C         -2.0624806457       -3.3158145723       -0.4682337647
 C         -1.8570316733       -4.7806721629       -0.2301850372
 C         -3.1707037230       -4.1436471841        0.1071316753
 H         -4.0267536946       -4.3619043681       -0.5135349573
 H         -3.4153425604       -3.9904667243        1.1484965266
 H         -1.2103905886       -5.0681242861        0.5849093586
 H         -1.8136500541       -5.4410612335       -1.0829110123
 H         -2.1752538780       -2.9706606282       -1.4892174965
 O         -1.8700067321       -0.5455892644       -1.8138855568
