  62
        -98.93859990
 C         -2.6310185032       -0.2517176468       -0.0307184143
 C         -2.2142557301       -1.1909063653       -1.0030097420
 C         -1.6040554137       -2.4250895496       -0.4929712707
 C         -1.5125265035       -2.6104591580        0.8364061126
 C         -0.8127760198       -3.7558352803        1.5108198904
 C          0.7079053909       -3.4953088196        1.5204119293
 C          1.5236437040       -4.4753355878        0.6760137317
 H          2.5281258615       -4.0580726838        0.5791104283
 H          1.6063570744       -5.4242250489        1.2111413448
 C          0.9739484008       -4.7741426933       -0.7221551889
 H          1.7799030838       -5.2471020590       -1.2874036757
 H          0.1702341160       -5.5088846280       -0.6507014263
 C          0.4618342156       -3.5642855269       -1.5153839234
 H          0.7657510503       -3.6828605631       -2.5579733487
 H          0.9209385461       -2.6409197120       -1.1560254709
 C         -1.0709138051       -3.4003031493       -1.5042233426
 H         -1.3900284938       -3.0068853859       -2.4740098817
 H         -1.5473777631       -4.3753109043       -1.3691325278
 H          0.8857132527       -2.4763882098        1.1681163160
 H          1.0765661002       -3.5407787185        2.5466254476
 H         -1.1936268471       -3.8149257670        2.5307980188
 H         -1.0418756786       -4.6861163782        0.9959254080
 O         -1.9854027148       -1.7142925940        1.7405269458
 C         -2.4957113423       -0.4902535025        1.3360736923
 O         -2.7997252037        0.2730420344        2.2733131416
 H         -0.4419464200        0.8074464775       -0.4698581695
 C         -0.7137243318        1.7864652323       -0.1042854566
 C         -2.0549501213        2.1443760929       -0.0447616744
 C         -2.3785575006        3.4185035157        0.4018401346
 C         -1.3792053439        4.2958399053        0.7902009799
 C         -0.0482957730        3.9245769969        0.7529685442
 C          0.2861766895        2.6477925094        0.3103589655
 N          1.6208046087        2.2108933306        0.3226393832
 S          2.0842733867        0.7962237604       -0.4576851439
 O          1.8044532838        0.8794624750       -1.8750442707
 O          1.5318192774       -0.3339213518        0.2455089342
 C          3.8442464809        0.8717105621       -0.1859231933
 C          4.3579586834        0.3714796715        0.9952790283
 C          5.7225284844        0.4566366836        1.2222841103
 C          6.5460791186        1.0390799786        0.2703081691
 C          6.0168114998        1.5348356128       -0.9117927349
 C          4.6529484022        1.4524881369       -1.1446769457
 H          4.1984260575        1.8126534098       -2.0536228275
 H          6.6598813752        1.9834726099       -1.6516323179
 H          7.6076110595        1.1040549934        0.4495042744
 H          6.1372190119        0.0688660444        2.1386853984
 H          3.6790551148       -0.0785840613        1.7011988259
 H          2.3007044109        2.9516907037        0.2318212891
 H          0.7249329991        4.6060936172        1.0717500211
 H         -1.6436336658        5.2842837895        1.1342327323
 H         -3.4113058739        3.7231167021        0.4499254761
 C         -3.0795960411        1.1242997559       -0.4867211745
 H         -3.0668832367        1.0863129869       -1.5873631161
 C         -4.4858424863        1.4400017414       -0.0249783999
 C         -5.3711449788        2.3253622207       -0.8491359599
 C         -5.6414933422        0.8535707226       -0.7774021211
 H         -6.4989668536        0.5100093051       -0.2188392883
 H         -5.4114739846        0.2470805024       -1.6414876451
 H         -6.0487859331        2.9939274166       -0.3399958166
 H         -4.9668665731        2.7198092727       -1.7692971889
 H         -4.5653899007        1.4927607464        1.0546442287
 O         -2.3331288090       -0.9944657507       -2.2451327419
