  62
        -98.94484269
 C          2.4460008137        1.1880284768       -0.0857322567
 C          3.2404310386        0.5085717672        0.8760314542
 C          3.9175953036       -0.7119920186        0.4238418604
 C          3.7645461445       -1.1111643247       -0.8514834841
 C          4.3431660389       -2.3669584848       -1.4343662351
 C          3.3620144770       -3.5405007043       -1.3047630716
 C          2.7810281278       -3.7099832726        0.0993247962
 H          2.1322635425       -4.5885376900        0.0771286584
 H          2.1428412647       -2.8522037715        0.3272337746
 C          3.8312902376       -3.8756425896        1.2069359710
 H          4.7879041286       -4.1629297112        0.7691077157
 H          3.5179326166       -4.6887346246        1.8649504151
 C          4.0266351654       -2.6401510120        2.0877524581
 H          4.6137561269       -2.9352448334        2.9613502984
 H          3.0552661279       -2.2912726116        2.4475450605
 C          4.7489596118       -1.4583686756        1.4286822366
 H          5.6820418958       -1.8017614660        0.9778660182
 H          4.9898795252       -0.7361612307        2.2139868327
 H          3.8779181821       -4.4560119638       -1.6002267894
 H          2.5325323503       -3.3783999486       -1.9976544594
 H          5.2758536706       -2.6015383991       -0.9250826045
 H          4.5494425569       -2.1930157290       -2.4918025172
 O          3.0163129643       -0.4262133447       -1.7510199159
 C          2.3217160783        0.7204471236       -1.3938516041
 O          1.6614013411        1.2076065324       -2.3349008380
 O          3.3783707213        0.9116774748        2.0614330968
 C          1.7005612971        2.4227460292        0.3990628604
 C          0.2700083552        2.0434843054        0.6980883179
 C         -0.1746279903        1.9200874853        2.0095622748
 C         -1.4652253454        1.5002905201        2.2806718564
 C         -2.3333876502        1.1826804993        1.2511878160
 C         -1.8943272570        1.2936053038       -0.0612914029
 C         -0.6099848625        1.7383910500       -0.3311058869
 H         -0.2714607952        1.7987735241       -1.3548467903
 N         -2.7607469683        0.9225465370       -1.1153514528
 S         -3.1198182424       -0.7246645649       -1.1558989819
 O         -2.0463029179       -1.5131176151       -0.5920669663
 O         -3.4794679548       -1.0124295574       -2.5275321477
 C         -4.5739007064       -0.8551882552       -0.1360938090
 C         -4.5521725465       -1.6413471617        0.9990316354
 C         -5.6964819492       -1.7254451061        1.7772726322
 C         -6.8351448001       -1.0255924324        1.4084182925
 C         -6.8411123569       -0.2421307230        0.2636827822
 C         -5.7013665509       -0.1550739224       -0.5195753388
 H         -5.6630073794        0.4369891281       -1.4185837651
 H         -7.7285915899        0.3001160028       -0.0200161527
 H         -7.7232072769       -1.0912703167        2.0169533615
 H         -5.6934552815       -2.3343928350        2.6670167606
 H         -3.6410714076       -2.1612909180        1.2486314698
 H         -2.3978627351        1.1943369714       -2.0197351712
 H         -3.3361981140        0.8433700648        1.4539549489
 H         -1.7959652285        1.4109384399        3.3041313648
 H          0.5097055123        2.1340260366        2.8177911520
 H          2.1818515292        2.6925694655        1.3485481564
 C          1.7988261978        3.6057027884       -0.5416879121
 C          1.5122394075        4.9774212258       -0.0108385884
 C          2.9154128991        4.5888828222       -0.3653491413
 H          3.3653045340        5.0186226868       -1.2477057032
 H          3.6150403434        4.4116172562        0.4383530588
 H          0.9956278172        5.6780831157       -0.6484913701
 H          1.2601089800        5.0644843029        1.0350931316
 H          1.4942516591        3.3827875332       -1.5557391545
