  62
        -98.94855008
 C          1.5411199911        1.1288231942        0.8433365004
 C          2.5284244380        0.5868483277       -0.0143887721
 C          2.9899599508       -0.7662206394        0.3173094903
 C          2.4544728751       -1.4208194116        1.3627655105
 C          2.7985175865       -2.8166606149        1.8054338999
 C          2.0523332339       -3.9049027354        1.0207936595
 C          2.5584195117       -4.1422184989       -0.4027850217
 H          3.6420715851       -4.2678166077       -0.3898200595
 H          2.1234621020       -5.0843539765       -0.7427989605
 C          2.1741973188       -3.0396914811       -1.3997663531
 H          1.3437734738       -2.4552175854       -0.9952689881
 H          1.8114153926       -3.4980716024       -2.3236033861
 C          3.3176491284       -2.0991583871       -1.7820078055
 H          2.9153395326       -1.3249247092       -2.4406996274
 H          4.0777336334       -2.6546934176       -2.3371561641
 C          3.9944054429       -1.4039962891       -0.5943755521
 H          4.6105852587       -2.1145725096       -0.0437473935
 H          4.6366693179       -0.6109716833       -0.9861660768
 H          2.1491950113       -4.8383949610        1.5806742495
 H          0.9915290907       -3.6434025205        0.9824997659
 H          3.8740840730       -2.9773304653        1.7244838383
 H          2.5127384789       -2.8910799860        2.8569532302
 O          1.5144266608       -0.8631148126        2.1691939679
 C          1.0115561315        0.4006669920        1.9079055186
 O          0.1112424469        0.7641575242        2.6939169608
 O          3.0052281915        1.1946999675       -1.0085817906
 C          0.9015547657        2.4714668002        0.5207165106
 C          0.1757321663        2.2945980977       -0.7922191606
 C          0.4376348762        3.0230118719       -1.9430147068
 C         -0.1985394702        2.6952032676       -3.1294285153
 C         -1.0820947414        1.6341829494       -3.1956133726
 C         -1.3668034850        0.9114098880       -2.0400660139
 C         -0.7655039885        1.2729702024       -0.8481142441
 H         -0.9810853333        0.7142154345        0.0490555746
 N         -2.2627202404       -0.1634811609       -2.0650871086
 S         -2.2490201506       -1.3839855231       -0.9223451493
 O         -0.9254144414       -1.6653618085       -0.4202519724
 O         -2.9222304445       -2.4831079486       -1.5837705399
 C         -3.3178304375       -0.7520322584        0.3529882648
 C         -2.8472045974       -0.5134744700        1.6272508495
 C         -3.7204995008       -0.0106672022        2.5802833511
 C         -5.0417980320        0.2387319772        2.2460590299
 C         -5.5019290562       -0.0127983260        0.9615593429
 C         -4.6338942260       -0.5117375699        0.0054047649
 H         -4.9507789487       -0.7287808421       -1.0010210541
 H         -6.5310059744        0.1804410579        0.7048850724
 H         -5.7153365097        0.6305731676        2.9918809670
 H         -3.3516662679        0.1879112639        3.5739717795
 H         -1.8109830548       -0.7025022714        1.8642399412
 H         -2.5405444778       -0.4822670454       -2.9804371212
 H         -1.5449975984        1.3592298589       -4.1310181514
 H          0.0179797973        3.2604929839       -4.0233756933
 H          1.1538572218        3.8275765021       -1.9198948101
 H          0.1563835958        2.6536142182        1.3080911182
 C          1.9132313886        3.5949271807        0.5280473447
 C          1.4552500396        5.0065210072        0.7359007019
 C          2.2106048866        4.2965671992        1.8178600056
 H          3.2287255226        4.5939981874        2.0191824815
 H          1.6690465799        3.9744162471        2.6954879883
 H          1.9557011608        5.7960229958        0.1961660526
 H          0.3984475618        5.1718673449        0.8810529483
 H          2.7420808152        3.4176404646       -0.1464457124
