  62
        -98.94472453
 C         -2.0123463811       -1.3680104217        0.3101938804
 C         -2.6583062361       -0.7681511768       -0.7979168677
 C         -3.8095028048        0.0891595513       -0.4785215569
 C         -4.1777502626        0.2504317376        0.8054954489
 C         -5.2908820357        1.1416723541        1.2734416518
 C         -4.7738064723        2.5508571698        1.5955426977
 C         -3.9015047399        3.1557645954        0.4950854619
 H         -3.6192307837        4.1602447415        0.8184212056
 H         -2.9788824343        2.5764137409        0.4094908500
 C         -4.5777639610        3.2327297044       -0.8809038332
 H         -4.3799886241        4.2159739547       -1.3129854518
 H         -5.6585397307        3.1400084363       -0.7678603552
 C         -4.0826683301        2.1950703097       -1.8903548001
 H         -4.4594192155        2.4754004792       -2.8776051305
 H         -2.9906618113        2.2216213559       -1.9386288892
 C         -4.5185316589        0.7479012840       -1.6279398088
 H         -5.6007863081        0.7086380151       -1.4890118925
 H         -4.2627210918        0.1596118150       -2.5140040312
 H         -4.1822328117        2.5018441485        2.5128420709
 H         -5.6314756308        3.2002924682        1.7795510678
 H         -6.0578484733        1.1919070554        0.5032459509
 H         -5.7230597722        0.7079856947        2.1767957866
 O         -3.5336208010       -0.3450096463        1.8420294294
 C         -2.4284581631       -1.1521456518        1.6230902730
 O         -1.9075664536       -1.6059435391        2.6629662903
 H          0.0668633173        0.1566621103        0.7726192335
 C          0.6107601033       -0.2151016229       -0.0877085228
 C          0.2918873546       -1.4688166680       -0.5963700857
 C          1.0106528115       -1.9419415839       -1.6856638643
 C          1.9948128172       -1.1614715897       -2.2689765022
 C          2.2906412218        0.0955848992       -1.7764952188
 C          1.5931035695        0.5691044091       -0.6716005240
 N          1.8987932984        1.8367671536       -0.1486956259
 S          3.5119835241        2.2506758409        0.0156467515
 O          3.5496239938        3.1975751222        1.1081447289
 O          4.0210800186        2.7274158088       -1.2461145575
 C          4.3451117079        0.7387435703        0.4673573115
 C          3.9439004798        0.0929610499        1.6201256227
 C          4.5604621426       -1.0968364651        1.9710323292
 C          5.5635169707       -1.6177088467        1.1676258873
 C          5.9591214678       -0.9544197171        0.0167110737
 C          5.3439017341        0.2347952252       -0.3405360885
 H          5.6174777617        0.7815144688       -1.2282054352
 H          6.7407394502       -1.3606860953       -0.6046865958
 H          6.0389030590       -2.5458690425        1.4428084813
 H          4.2529848829       -1.6134422286        2.8662104803
 H          3.1638860779        0.5247820511        2.2270965025
 H          1.3692912480        2.0826184663        0.6742294462
 H          3.0390531217        0.7226357499       -2.2331339757
 H          2.5360207429       -1.5363555652       -3.1239987087
 H          0.7931227316       -2.9176424360       -2.0871349734
 C         -0.8002793259       -2.2550785218        0.0885732227
 H         -0.4409247071       -2.5332665807        1.0902312451
 C         -1.1993864588       -3.5142738877       -0.6517642287
 C         -0.4393449069       -4.7878449238       -0.4387687165
 C         -1.8212064677       -4.6373346693        0.1207190591
 H         -2.6281949010       -5.1917342788       -0.3343505525
 H         -1.9328396641       -4.5027635340        1.1870970482
 H         -0.2988935333       -5.4514657363       -1.2785454464
 H          0.3903091698       -4.7659251003        0.2513451268
 H         -1.5939108425       -3.3086847095       -1.6399823704
 O         -2.2938506776       -0.9356893902       -1.9901950704
