  62
        -98.93348392
 C         -2.5332302766       -1.0245947853        0.4163469230
 C         -2.6221454768        0.1753170915        1.1608149930
 C         -3.5957497697        1.1778539324        0.6961220444
 C         -4.3085456148        0.9340064886       -0.4197725328
 C         -5.4012896959        1.7307214581       -1.1019180781
 C         -5.6672077197        3.1831502637       -0.7160154979
 C         -4.5565288625        4.1587198520       -1.1044706762
 H         -4.7964115291        5.1371208405       -0.6827017556
 H         -4.5486915638        4.2585263084       -2.1927999568
 C         -3.1482256449        3.7606986669       -0.6699941476
 H         -2.4581031845        4.5284914507       -1.0302070535
 H         -2.8658286317        2.8232994631       -1.1539646930
 C         -2.9435671809        3.6232423669        0.8371941816
 H         -3.2494396449        4.5454189154        1.3351441954
 H         -1.8729712160        3.4872450239        1.0125858700
 C         -3.6747086492        2.4438096138        1.5006898703
 H         -4.7094950236        2.6946031186        1.7210510183
 H         -3.1789240766        2.2327224649        2.4526928163
 H         -5.8878290314        3.2559074131        0.3448525206
 H         -6.5729773365        3.4857737417       -1.2484550046
 H         -6.3219809459        1.1572733325       -0.9468384151
 H         -5.1846425446        1.6779531208       -2.1736501703
 O         -4.1497445778       -0.2175282608       -1.1350081650
 C         -3.2677150608       -1.2155177110       -0.7528337992
 O         -3.2443173659       -2.1917492518       -1.5247093055
 O         -1.9230121074        0.3982483493        2.1867175048
 C         -1.5638220241       -2.0945871789        0.8908391074
 C         -0.3697496267       -2.1132271559       -0.0321506355
 C         -0.1793638916       -3.0739494516       -1.0161987051
 C          0.9247343887       -3.0092040495       -1.8491100154
 C          1.8576232058       -1.9972609925       -1.7171516740
 C          1.6792964871       -1.0339277324       -0.7318116470
 C          0.5728184935       -1.1003548348        0.1021902458
 H          0.4247788772       -0.3482333050        0.8668754352
 N          2.6185125755        0.0059189689       -0.5947348213
 S          4.2499077303       -0.4314326644       -0.6745875530
 O          4.6356485366       -0.4930476038       -2.0624499870
 O          4.4801110146       -1.6321688344        0.0968058816
 C          5.0300597972        0.9677247148        0.1052620409
 C          5.2333837706        2.1162106719       -0.6362200597
 C          5.8258752096        3.2101329948       -0.0257889147
 C          6.2026487608        3.1380952899        1.3072494942
 C          5.9925227093        1.9783545934        2.0379308385
 C          5.3989299602        0.8809767557        1.4341790082
 H          5.2242342002       -0.0437517867        1.9605414006
 H          6.2886380299        1.9242729088        3.0731982662
 H          6.6656366964        3.9902527122        1.7792665945
 H          5.9932289785        4.1130424411       -0.5905212958
 H          4.9343710942        2.1229605974       -1.6713741382
 H          2.4334064278        0.5768504893        0.2189021072
 H          2.7246573061       -1.9441676206       -2.3560656386
 H          1.0613137591       -3.7596034080       -2.6135286303
 H         -0.9026034808       -3.8626085122       -1.1410792520
 H         -1.2178079055       -1.7516190955        1.8759740598
 C         -2.2335333855       -3.4414328696        1.0560288189
 C         -1.5469991155       -4.5056635063        1.8571559028
 C         -2.7693518466       -3.8301903673        2.4000588738
 H         -3.6918263024       -4.3893867033        2.4438909406
 H         -2.6473335379       -3.1260437056        3.2101373546
 H         -1.6278892489       -5.5308047481        1.5297923122
 H         -0.5919223855       -4.2592163855        2.2962603497
 H         -2.8049309280       -3.7467560083        0.1883695305
