  62
        -98.94418456
 C         -2.2436841834       -0.8455913571        0.4218923406
 C         -2.4612725334       -0.0209736065       -0.7086905589
 C         -3.3226228432        1.1475075823       -0.4849777508
 C         -3.8042358423        1.3997910207        0.7456361846
 C         -4.6756639277        2.5631436982        1.1350018016
 C         -6.1699954419        2.3419373550        0.8626707969
 C         -6.5762119580        2.3855479930       -0.6109476048
 H         -7.6664502067        2.4353714169       -0.6406991142
 H         -6.1962129293        3.3016310986       -1.0641494993
 C         -6.1150841342        1.1728335444       -1.4314074478
 H         -6.9433483431        0.8130801786       -2.0459317654
 H         -5.8412243709        0.3589590966       -0.7560573560
 C         -4.9419127209        1.4520614977       -2.3709710398
 H         -5.2474641675        2.1701747822       -3.1350690604
 H         -4.6753196930        0.5186100754       -2.8729027519
 C         -3.6860632970        1.9883924697       -1.6713315792
 H         -2.8529559066        1.9421296253       -2.3769354261
 H         -3.8354729123        3.0257321136       -1.3725732175
 H         -6.7163977078        3.1262534867        1.3916263839
 H         -6.4653013884        1.3827687282        1.2943366589
 H         -4.3395660547        3.4625217666        0.6181080255
 H         -4.5393010121        2.7077985157        2.2090314029
 O         -3.5246380214        0.6106715997        1.8186276162
 C         -2.7581729928       -0.5358656089        1.6797839041
 O         -2.5964146938       -1.1774877270        2.7393172129
 O         -1.9633644813       -0.2440695512       -1.8416354692
 C         -1.4015714496       -2.1006570904        0.2893285228
 C         -0.0036374466       -1.7563116442       -0.1672349953
 C          0.6875084632       -2.4931576941       -1.1199781485
 C          1.9778011120       -2.1418057771       -1.4778898310
 C          2.6059629604       -1.0556586235       -0.8977434042
 C          1.9291190397       -0.3186475722        0.0654836099
 C          0.6398170602       -0.6772649521        0.4265788353
 H          0.1159808224       -0.1040370528        1.1830930824
 N          2.5577323731        0.7936809649        0.6564943398
 S          4.0590952262        0.5485810029        1.3720026630
 O          4.1952179893       -0.8044005394        1.8605972806
 O          4.1871920957        1.6033579995        2.3539696029
 C          5.2179817475        0.8404916869        0.0524975769
 C          5.1821986801        2.0641198475       -0.5870673534
 C          6.0823969388        2.3095930507       -1.6115885410
 C          6.9996170163        1.3344661729       -1.9746753623
 C          7.0252076906        0.1126176311       -1.3199196635
 C          6.1266747706       -0.1399315661       -0.2948971683
 H          6.1050594326       -1.0763751677        0.2392441137
 H          7.7394177990       -0.6436597483       -1.6032461625
 H          7.6989158137        1.5284232761       -2.7725585350
 H          6.0656032610        3.2585897836       -2.1229187120
 H          4.4566607526        2.7953240998       -0.2716737175
 H          1.9550563964        1.3081157995        1.2827499794
 H          3.6071052389       -0.7743208097       -1.1803689727
 H          2.5001698749       -2.7207910393       -2.2239634416
 H          0.2149934645       -3.3425409677       -1.5850611175
 H         -1.3275938925       -2.5260571893        1.3017650537
 C         -2.1003539175       -3.1002497201       -0.6096647493
 C         -1.9219767480       -4.5716752228       -0.3911282347
 C         -3.2237633982       -3.9151405504       -0.0453463251
 H         -4.0839910040       -4.1100488888       -0.6680260388
 H         -3.4646606917       -3.7704857998        0.9982549278
 H         -1.8915979049       -5.2216813829       -1.2525691665
 H         -1.2819909304       -4.8831489207        0.4207344777
 H         -2.2052946366       -2.7401123094       -1.6265342690
