  62
        -98.94555260
 C         -1.8023226140       -1.2344922589        0.3988331899
 C         -1.6131583122       -0.0409811730       -0.3405047847
 C         -2.4258162603        1.1056919522        0.0883422805
 C         -3.2705090199        0.9791305148        1.1277605803
 C         -4.1578953199        2.0594908904        1.6843568281
 C         -5.4843651956        2.2253839288        0.9298061231
 C         -5.3736652830        2.8764696653       -0.4496696639
 H         -6.3877316808        3.1305329578       -0.7646779320
 H         -4.8163429237        3.8100469457       -0.3656079742
 C         -4.7326797234        1.9850948982       -1.5226743081
 H         -4.7467025819        0.9453618199       -1.1876370155
 H         -5.3267486395        2.0340168912       -2.4379656334
 C         -3.2992744231        2.3672160485       -1.8915863639
 H         -3.2911808683        3.3569664083       -2.3533819210
 H         -2.9322222594        1.6474154734       -2.6272860759
 C         -2.3253493133        2.3727564443       -0.7064112127
 H         -1.3072457413        2.4401981272       -1.0975264622
 H         -2.5110850868        3.2380422069       -0.0702757134
 H         -5.9559066580        1.2445437239        0.8335071976
 H         -6.1351074842        2.8465319230        1.5496979185
 H         -4.3818038364        1.7778091763        2.7157031910
 H         -3.6214759139        3.0089629759        1.6934999942
 O         -3.4044389289       -0.1801311481        1.8265998589
 C         -2.6853719593       -1.3131537453        1.4745042098
 O         -2.9095366812       -2.3081175625        2.1945896042
 H          0.3306632523       -0.8845975571        1.6927235895
 C          0.9928748580       -1.3605908461        0.9794505525
 C          0.4614031428       -2.2237785555        0.0306476126
 C          1.3301212159       -2.8259708999       -0.8716978275
 C          2.6888206659       -2.5653706263       -0.8226708411
 C          3.2107845048       -1.6908953094        0.1123826926
 C          2.3495916057       -1.0773592916        1.0132644942
 N          2.8599209956       -0.1542091772        1.9412212541
 S          3.9765582646        0.9656617993        1.3891718407
 O          5.3007603919        0.3994751226        1.4761879893
 O          3.7520849561        2.1487980558        2.1919848270
 C          3.5801945703        1.2804033901       -0.3231325842
 C          2.2767181582        1.5756202357       -0.6687419236
 C          1.9696978939        1.7934753268       -2.0014927305
 C          2.9686247875        1.7282974610       -2.9602817803
 C          4.2760946420        1.4462624310       -2.5962273312
 C          4.5861638156        1.2131737684       -1.2662488456
 H          5.5849907038        0.9720764560       -0.9401171271
 H          5.0514038546        1.3974061292       -3.3437911197
 H          2.7225590007        1.8949994968       -3.9970707630
 H          0.9459932420        1.9820775975       -2.2816814685
 H          1.5090306540        1.6161157309        0.0879244716
 H          2.1524971120        0.2904593913        2.5074179574
 H          4.2655571303       -1.4727467263        0.1612381822
 H          3.3504372215       -3.0439974466       -1.5280251902
 H          0.9417227010       -3.5003046248       -1.6170298324
 C         -1.0263503552       -2.4836065481        0.0263600139
 H         -1.2454096076       -3.2241558929        0.8102563166
 C         -1.5275572634       -3.0183492386       -1.3013925625
 C         -1.5755568135       -4.4931851594       -1.5613143550
 C         -2.8455619994       -3.7298994539       -1.3386811580
 H         -3.5024316189       -3.5590805253       -2.1784355882
 H         -3.3639297507       -3.8586300022       -0.3991198453
 H         -1.3630695690       -4.8489640528       -2.5582689645
 H         -1.2401048044       -5.1527253620       -0.7751001957
 H         -1.2916746059       -2.3584211155       -2.1283359464
 O         -0.8070599745        0.0680536086       -1.2978906273
