  62
        -98.94439100
 C         -1.9019051486       -0.7962270092        0.0076646904
 C         -2.4160423261        0.5059191958        0.2174639990
 C         -3.8306610529        0.5733240168        0.6073228777
 C         -4.5377074739       -0.5604248007        0.7656596347
 C         -5.9795906576       -0.6546064547        1.1856494280
 C         -6.9783500656       -0.4859115340        0.0326271543
 C         -7.1130054573        0.9383273053       -0.5073873413
 H         -7.9931887279        0.9543447076       -1.1532389258
 H         -7.3038603254        1.6229024335        0.3196579173
 C         -5.9012371588        1.4270114252       -1.3132275744
 H         -6.2446260497        1.9076031307       -2.2321710431
 H         -5.2906190545        0.5709148704       -1.6094332901
 C         -5.0159068694        2.4345214794       -0.5794878242
 H         -4.1714186354        2.6842807026       -1.2270547880
 H         -5.5798724769        3.3515046189       -0.3942209271
 C         -4.4544188433        1.9281061964        0.7556498556
 H         -3.6727282548        2.6181989757        1.0830564197
 H         -5.2406867199        1.9060800276        1.5100579765
 H         -6.6913317917       -1.1578222516       -0.7794749235
 H         -7.9562641462       -0.8063728582        0.3991889017
 H         -6.1854734265        0.0865694310        1.9583680802
 H         -6.1136644881       -1.6503545094        1.6137215960
 O         -3.9975018352       -1.7938262562        0.5761540489
 C         -2.6791313954       -1.9418389228        0.1770101837
 O         -2.3186165833       -3.1260685671        0.0196093245
 O         -1.7337802016        1.5558914391        0.0919560508
 C         -0.4589624634       -0.9805064183       -0.4273564835
 C          0.4706225875       -0.3296961285        0.5674200533
 C          0.3063175433       -0.6143543671        1.9213792121
 C          1.1201965585       -0.0301776189        2.8711902480
 C          2.1286021956        0.8388382988        2.4912658222
 C          2.3094112180        1.1211531117        1.1437754370
 C          1.4870887880        0.5331989248        0.1904900479
 H          1.6434818028        0.7855791644       -0.8444442394
 N          3.3215979550        2.0028995332        0.7293686551
 S          4.3071038252        1.5848643426       -0.5549457083
 O          5.4679148473        2.4360866560       -0.4139995947
 O          3.5880717709        1.6917332541       -1.7979439800
 C          4.7484878975       -0.1122543120       -0.2312228800
 C          4.1078785244       -1.1297726442       -0.9075302313
 C          4.4133919608       -2.4428709736       -0.5855715429
 C          5.3475679834       -2.7136485054        0.4019371361
 C          5.9874082932       -1.6793650591        1.0683904316
 C          5.6835511109       -0.3652170019        0.7537075151
 H          6.1662735394        0.4662099315        1.2412730524
 H          6.7174088539       -1.8939857555        1.8321310201
 H          5.5796045998       -3.7371523635        0.6509299089
 H          3.9186045187       -3.2486029161       -1.1043433200
 H          3.3905323174       -0.8790447042       -1.6712608635
 H          3.8646305934        2.3950919141        1.4847553282
 H          2.7614073334        1.3031947255        3.2322412766
 H          0.9718603376       -0.2537030037        3.9169089223
 H         -0.4822444712       -1.2927939426        2.2181826461
 H         -0.2743827228       -2.0647560977       -0.4111063417
 C         -0.2801645566       -0.4778643309       -1.8447189530
 C          0.7122382825       -1.1280035316       -2.7591764176
 C         -0.7561379509       -1.3283195741       -2.9825282435
 H         -1.2237426017       -0.8452083316       -3.8274023971
 H         -1.1840216069       -2.2895719746       -2.7364361699
 H          1.2617215598       -0.5059950268       -3.4506695295
 H          1.2731411398       -1.9644133259       -2.3698040795
 H         -0.4298676902        0.5926434397       -1.9313804933
