  62
        -98.93874100
 C         -1.8419881265        0.7723578345       -0.3434936570
 C         -2.4586123390        0.1830882905        0.7843968083
 C         -3.5558177092       -0.7631303473        0.5072921379
 C         -3.8756407148       -1.0406254806       -0.7685058423
 C         -4.9885532715       -1.9223987048       -1.2635260531
 C         -6.2554424006       -1.0942348160       -1.5382411056
 C         -7.1726024198       -0.8992067247       -0.3315147876
 H         -7.9531985017       -0.1946941962       -0.6277502912
 H         -7.6602510409       -1.8472602121       -0.0948812107
 C         -6.4890901300       -0.3721574905        0.9329139306
 H         -5.7936940541        0.4269905074        0.6699577293
 H         -7.2588391828        0.0662217089        1.5709962714
 C         -5.7539798429       -1.4656103023        1.7223883372
 H         -6.0675811029       -1.4296581429        2.7677455574
 H         -6.0554880964       -2.4421264499        1.3436469917
 C         -4.2215930535       -1.3601764783        1.7169336716
 H         -3.7942815428       -2.3527604515        1.8956872493
 H         -3.8965772282       -0.7288841536        2.5500492010
 H         -5.9419071519       -0.1206584992       -1.9237404094
 H         -6.8316414921       -1.5862467623       -2.3245192805
 H         -5.1875499465       -2.7250631110       -0.5596711943
 H         -4.6464412506       -2.3571704965       -2.2051640860
 O         -3.2216359304       -0.4851619440       -1.8265202682
 C         -2.1990981057        0.4276798538       -1.6459910059
 O         -1.6862598261        0.8462117696       -2.7046681508
 O         -2.1197544155        0.4377578853        1.9692329399
 C         -0.7232316799        1.7824781235       -0.1596021000
 C          0.4395532622        1.1360236379        0.5541803396
 C          1.0656565150        1.6875722482        1.6633538838
 C          2.1255356020        1.0324206570        2.2679710499
 C          2.5909619268       -0.1721040067        1.7754588969
 C          1.9853048659       -0.7214653905        0.6515383183
 C          0.9235710974       -0.0652792542        0.0492070781
 H          0.4497899864       -0.4965966304       -0.8245910195
 N          2.4673748218       -1.9322232995        0.1264570711
 S          4.1249237280       -2.1200622192       -0.0077043101
 O          4.3150807390       -3.0322345001       -1.1139174113
 O          4.6682703512       -2.5478621497        1.2574484400
 C          4.7541524059       -0.5001622968       -0.4143203503
 C          4.2732143456        0.1206002636       -1.5502316876
 C          4.7294576650        1.3903641126       -1.8640153802
 C          5.6553505010        2.0142900663       -1.0416399673
 C          6.1335898562        1.3751330134        0.0914012388
 C          5.6784964184        0.1060349331        0.4117560609
 H          6.0194497569       -0.4255659077        1.2851727005
 H          6.8549311592        1.8618162856        0.7276924709
 H          6.0051838692        3.0044042414       -1.2876162267
 H          4.3573115095        1.8881055656       -2.7452065340
 H          3.5558250385       -0.3905189292       -2.1726681388
 H          1.9923221761       -2.2366940188       -0.7100347596
 H          3.4037181120       -0.7016892413        2.2454524895
 H          2.5939668795        1.4654636569        3.1383414139
 H          0.7173713672        2.6249888812        2.0636174261
 H         -0.3895851456        2.0490791587       -1.1731869007
 C         -1.2440004387        3.0286383134        0.5245070080
 C         -0.5855210083        4.3518972289        0.2789808576
 C         -1.9379392629        4.0688152309       -0.3007920079
 H         -2.7970070409        4.5710572406        0.1181762018
 H         -2.0143189973        3.8895288446       -1.3637266883
 H         -0.5172318945        5.0539626451        1.0960733501
 H          0.2584624699        4.3727167720       -0.3935294823
 H         -1.6422976167        2.8269344415        1.5119205838
