  62
        -98.94226597
 C         -2.1636686324       -1.0437639845        0.0979928686
 C         -1.5328984721       -0.2042038985       -0.8474707788
 C         -1.9704921418        1.2042834242       -0.8909869604
 C         -2.9330794364        1.6098622104       -0.0426444026
 C         -3.5537256982        2.9758253652        0.1014391140
 C         -2.6485273310        3.9783296997        0.8281065423
 C         -1.2146461106        4.0319043949        0.3094705993
 H         -0.6675107305        4.7528761858        0.9240148726
 H         -0.7353850786        3.0629573301        0.4618557795
 C         -1.0705452209        4.4574819359       -1.1506980948
 H         -1.5750913728        5.4154480964       -1.2968073360
 H         -0.0036086803        4.6120596676       -1.3309001797
 C         -1.5830944596        3.4623091455       -2.1972685712
 H         -2.6577388648        3.5473475015       -2.3392923296
 H         -1.1217627192        3.7296092070       -3.1521539345
 C         -1.2107882271        2.0110382699       -1.9146791807
 H         -1.2777276119        1.4378103633       -2.8466611188
 H         -0.1573566603        1.9617954140       -1.6135047081
 H         -2.6124832122        3.7046052603        1.8858365237
 H         -3.1038354171        4.9680999142        0.7507280091
 H         -3.8423545113        3.3617959728       -0.8718555561
 H         -4.4644125047        2.8405593085        0.6901066091
 O         -3.5025097345        0.7644060214        0.8677404338
 C         -3.1191983060       -0.5562354846        0.9846942374
 O         -3.6934730223       -1.1866898751        1.8989410491
 H         -0.3084892995       -1.0089094851        1.8816563046
 C          0.3300555143       -1.6694275312        1.3065476683
 C         -0.2438080645       -2.5542250668        0.4013951296
 C          0.5941747021       -3.3970058414       -0.3171754080
 C          1.9686999485       -3.3182046704       -0.1688508959
 C          2.5359621978       -2.3837899444        0.6787732541
 C          1.7036243382       -1.5589991934        1.4225653411
 N          2.2900003882       -0.5296498197        2.2194573414
 S          2.2210983312        0.9405367539        1.3812585313
 O          2.8815320585        1.9077506672        2.2336045366
 O          0.8627434717        1.2758148760        1.0121862864
 C          3.2128985065        0.6004683101       -0.0518773573
 C          4.5798486358        0.7754311370        0.0472836374
 C          5.3754112993        0.4661763090       -1.0435902995
 C          4.7921389180       -0.0161833841       -2.2060841654
 C          3.4189579437       -0.1879688451       -2.2866514454
 C          2.6143803991        0.1203416996       -1.1999422795
 H          1.5430759613       -0.0135236126       -1.2354258455
 H          2.9611725663       -0.5665579390       -3.1863567548
 H          5.4109848480       -0.2607565774       -3.0550634837
 H          6.4437052270        0.5985503716       -0.9838110182
 H          4.9829490950        1.1547252650        0.9719325341
 H          1.8062623273       -0.3987725862        3.0989927858
 H          3.6048055151       -2.2788612333        0.7694866866
 H          2.6057929531       -3.9732458196       -0.7424704801
 H          0.1695519703       -4.1029100518       -1.0121828232
 C         -1.7404214038       -2.4982229386        0.2205655557
 H         -2.2235899041       -2.8827809946        1.1308529701
 C         -2.2348968439       -3.2904887252       -0.9717128906
 C         -2.5408192878       -4.7512200097       -0.8357095654
 C         -3.6566083350       -3.7624294006       -0.9861942508
 H         -4.2005108226       -3.7324050702       -1.9182921003
 H         -4.2621246333       -3.5324079991       -0.1213028103
 H         -2.3229180014       -5.4037718472       -1.6675162162
 H         -2.3952233995       -5.2049199131        0.1329107702
 H         -1.8156742774       -2.9364811425       -1.9065308256
 O         -0.6400425350       -0.6117845698       -1.6365207837
