  62
        -98.93900153
 C          1.9718755012        0.9214281571        0.0664672943
 C          2.2975088579       -0.0620473155        1.0251636455
 C          2.4784349771       -1.4397807814        0.5318955930
 C          2.2960668059       -1.6846862204       -0.7791723988
 C          2.4741792658       -2.9927239034       -1.5016815621
 C          3.9559520126       -3.3398326575       -1.7385752947
 C          4.8927543179       -3.0176879196       -0.5759241108
 H          5.9185541440       -3.1564470101       -0.9272424114
 H          4.7818524940       -1.9651065779       -0.3084616683
 C          4.7072138686       -3.8804423606        0.6699639996
 H          4.9251657685       -4.9210160203        0.4186110989
 H          5.4447933689       -3.5538911947        1.4073224127
 C          3.3241368214       -3.8264724228        1.3188744832
 H          3.3931158234       -4.3468837781        2.2788536771
 H          2.5975571904       -4.3721987539        0.7229765119
 C          2.8095283896       -2.4230809575        1.6287913571
 H          1.8958159950       -2.5136798262        2.2306858699
 H          3.5330175650       -1.9118259890        2.2740717556
 H          4.0282401851       -4.4002404814       -1.9846853570
 H          4.2975000168       -2.7673511751       -2.6040681806
 H          1.9648711825       -3.7832071435       -0.9577965768
 H          1.9798186517       -2.8864360276       -2.4697634733
 O          1.9656807509       -0.7058847605       -1.6685893993
 C          1.7768576331        0.6053551250       -1.2772499963
 O          1.4615152012        1.3820810938       -2.2000302150
 H         -0.4673577978        0.9164600097        0.8631998339
 C         -0.6909891757        1.8801259374        0.4271274783
 C          0.3400137019        2.7773144663        0.1770744127
 C          0.0245735138        4.0147155359       -0.3688860971
 C         -1.2866916390        4.3250863679       -0.6862035591
 C         -2.3028910897        3.4121503849       -0.4762699713
 C         -1.9998846103        2.1783414754        0.0900639667
 N         -3.0116342366        1.2354336049        0.3472056474
 S         -2.6340559004       -0.4041315802        0.2023676349
 O         -2.0048585731       -0.8457734173        1.4231184786
 O         -1.9081179513       -0.6541253841       -1.0228413137
 C         -4.2794505889       -1.0861251395        0.1026049895
 C         -4.8040598500       -1.4244223698       -1.1302427148
 C         -6.0987732804       -1.9157305686       -1.1959844822
 C         -6.8437748610       -2.0555264597       -0.0347667577
 C         -6.3033022607       -1.7123045526        1.1958089364
 C         -5.0091607323       -1.2221706071        1.2687477039
 H         -4.5426921286       -0.9501227124        2.2011388345
 H         -6.8844259167       -1.8245850781        2.0967768512
 H         -7.8511648011       -2.4368007846       -0.0890381076
 H         -6.5198403943       -2.1861479604       -2.1508647125
 H         -4.1840849923       -1.3035818337       -2.0043159629
 H         -3.8761522659        1.4543765898       -0.1298964144
 H         -3.3211477337        3.6478232876       -0.7457592338
 H         -1.5173833008        5.2867607261       -1.1188724714
 H          0.8069026241        4.7310462852       -0.5590503022
 C          1.7472722821        2.3523730648        0.5178423878
 H          1.8464371113        2.3335943977        1.6140932169
 C          2.8118852565        3.2645720205       -0.0550639677
 C          3.2489311149        4.4859092498        0.6958284818
 C          4.1598194124        3.3004084845        0.5985233644
 H          5.0354168394        3.3688764995       -0.0293134797
 H          4.2985382457        2.6856427105        1.4760100328
 H          3.5035085507        5.3721529003        0.1344616820
 H          2.7764415055        4.6833812934        1.6460902868
 H          2.7785795947        3.3088151758       -1.1380602532
 O          2.4445762181        0.1987255396        2.2521902311
