  62
        -98.94946772
 C         -1.1186445991        1.7116138742       -0.1223608725
 C         -1.7233748011        0.9076446895       -1.1173070741
 C         -2.8394635038        0.0654947292       -0.6734952310
 C         -3.2143139965        0.0837339931        0.6185624008
 C         -4.3314920965       -0.7199472842        1.2265420972
 C         -3.9336648819       -2.1584430146        1.5857897892
 C         -3.7984556049       -3.1125619619        0.3982302593
 H         -3.7627549993       -4.1250393299        0.8054547030
 H         -4.6885891180       -3.0428984109       -0.2286037433
 C         -2.5426592792       -2.8847854012       -0.4544315680
 H         -2.0750046541       -3.8480308750       -0.6749541124
 H         -1.8131225919       -2.3126104554        0.1248669195
 C         -2.8010564918       -2.1917010620       -1.7925975993
 H         -1.8411044276       -2.0478358057       -2.2942619486
 H         -3.4138432251       -2.8401964264       -2.4233381629
 C         -3.4952395233       -0.8280371920       -1.6839085803
 H         -3.4253245898       -0.3321589796       -2.6556237377
 H         -4.5480665782       -0.9639741975       -1.4366653459
 H         -4.7016640059       -2.5518445067        2.2562571531
 H         -2.9895100615       -2.1343816078        2.1365449994
 H         -4.6215475751       -0.2029341735        2.1438809691
 H         -5.1870755314       -0.7348530325        0.5501343267
 O         -2.6153582994        0.8779894043        1.5446211189
 C         -1.5468944979        1.6967937762        1.2059425073
 O         -1.0836549683        2.3540829016        2.1577409339
 H          0.5881491544        0.2058088637        0.6799052911
 C          1.4321355674        0.8728076990        0.7349087714
 C          1.3277365886        2.1550592113        0.2194996305
 C          2.4209690418        3.0060317679        0.3483948233
 C          3.5724440087        2.5758355989        0.9835682662
 C          3.6708506978        1.2918876366        1.4904781078
 C          2.5841613186        0.4342494591        1.3683366278
 N          2.6234629303       -0.8688822948        1.8804884674
 S          1.7335186100       -2.1005064859        1.1904630081
 O          0.3267988609       -1.9229190187        1.4497299326
 O          2.3284393691       -3.3041826998        1.7310740683
 C          2.0828480488       -1.9939538550       -0.5548662554
 C          3.3469397997       -2.3583280692       -0.9782350691
 C          3.6677880984       -2.2342473094       -2.3196921577
 C          2.7279789843       -1.7393460434       -3.2121549505
 C          1.4628067788       -1.3826531327       -2.7736902509
 C          1.1350048525       -1.5141797712       -1.4337176661
 H          0.1565576875       -1.2428302091       -1.0710815003
 H          0.7247241932       -0.9860534072       -3.4534668040
 H          2.9805242010       -1.6326991945       -4.2552691098
 H          4.6490184621       -2.5172058930       -2.6651858440
 H          4.0466834794       -2.7453306467       -0.2554889847
 H          3.5202389099       -1.1800691987        2.2209929266
 H          4.5699201988        0.9601825785        1.9862488348
 H          4.4102546125        3.2491487194        1.0821331678
 H          2.3654285444        4.0087946305       -0.0432017014
 C          0.0675408862        2.5735137892       -0.5030138248
 H          0.2238262522        2.3927745904       -1.5782971721
 C         -0.2489563866        4.0437731361       -0.3022240991
 C          0.2489103647        5.0741991585       -1.2702074984
 C         -1.2044505082        4.7119405774       -1.2440772454
 H         -1.9118982193        5.4223754393       -0.8436510960
 H         -1.5975132084        4.1146195049       -2.0539922024
 H          0.8344264776        4.7334533479       -2.1108847551
 H          0.5409838607        6.0406271771       -0.8876313425
 H         -0.3122376599        4.3131329846        0.7460056637
 O         -1.3480318089        0.8941600036       -2.3212951618
