  62
        -98.94323756
 C          1.2606914199        0.6071227707        0.5587227200
 C          1.9753174096        0.4194439807       -0.6498390101
 C          3.0181401697       -0.6159721992       -0.6165439303
 C          3.1709652800       -1.3833715492        0.4765985297
 C          4.1766022002       -2.4888465491        0.6513413995
 C          5.5644148902       -2.0046875790        1.0943076492
 C          6.3765399099       -1.2820099189        0.0186168690
 H          7.3975960600       -1.1934478588        0.3949327788
 H          6.4132463398       -1.8973179090       -0.8809146210
 C          5.8575803797        0.1189442110       -0.3342640610
 H          5.1857335599        0.4673827710        0.4535628592
 H          6.6953033496        0.8187229511       -0.3725739612
 C          5.1324469894        0.2061830909       -1.6772631208
 H          5.8316938893       -0.0158490891       -2.4862879610
 H          4.7791380993        1.2319076609       -1.8099975508
 C          3.9247205195       -0.7320105292       -1.8045454905
 H          3.3514412093       -0.4396598693       -2.6879208004
 H          4.2585796195       -1.7618626392       -1.9304980905
 H          6.1279126204       -2.8838030489        1.4153708591
 H          5.4455439203       -1.3515617389        1.9620379692
 H          4.2647898600       -3.0538683391       -0.2772175205
 H          3.7785994304       -3.1515965791        1.4230944996
 O          2.3829792902       -1.2495587192        1.5773468998
 C          1.4234536302       -0.2524485193        1.6476296600
 O          0.7782771904       -0.2393497093        2.7162117201
 O          1.7690646893        1.0741951206       -1.7035535801
 C          0.1855034398        1.6709508706        0.6906650402
 C         -0.7615468304        1.5901662204       -0.4812957496
 C         -1.1194760407        2.6695759604       -1.2775310096
 C         -2.0229995109        2.5019744703       -2.3130180994
 C         -2.6075996509        1.2728432702       -2.5579603192
 C         -2.2529202606        0.1857360503       -1.7671923192
 C         -1.3319342404        0.3520355904       -0.7472426794
 H         -1.0369180602       -0.5051738896       -0.1601315695
 N         -2.8260056205       -1.0809399598       -1.9654603990
 S         -3.1875699702       -2.0103812598       -0.6232581289
 O         -1.9971873400       -2.6428711997       -0.1111044792
 O         -4.2290729602       -2.9075225799       -1.0778416287
 C         -3.8563479400       -0.8536482398        0.5602289812
 C         -5.0625269601       -0.2542971099        0.2510080214
 C         -5.5865395700        0.6897011401        1.1180808315
 C         -4.8959474898        1.0219531902        2.2739096413
 C         -3.6909853397        0.4066753803        2.5742033711
 C         -3.1627837798       -0.5412684597        1.7112761510
 H         -2.2234943597       -1.0307973896        1.9188667108
 H         -3.1490693895        0.6606227604        3.4715256210
 H         -5.2985831797        1.7624871902        2.9467235814
 H         -6.5263926501        1.1656587700        0.8897441917
 H         -5.5742985603       -0.5454363000       -0.6518228285
 H         -3.5596918807       -1.1133660399       -2.6578791589
 H         -3.3194415910        1.1484263601       -3.3594228390
 H         -2.2838571611        3.3455603802       -2.9337530093
 H         -0.6750075208        3.6356517904       -1.1045238097
 H         -0.3872333700        1.3785644505        1.5871851703
 C          0.7147146897        3.0722922206        0.9573285500
 C          2.0596832699        3.2830172908        1.5852730997
 C          1.8280450795        3.6793771107        0.1596865998
 H          1.7740200094        4.7327202107       -0.0740442803
 H          2.2657548294        3.0796718007       -0.6217104003
 H          2.1637159199        4.0592016208        2.3286789897
 H          2.6619242300        2.4073185408        1.7818421096
 H         -0.0727569903        3.7451897206        1.2822087702
