  62
        -98.94067042
 C          1.4926741991        1.2114990598       -0.0254324108
 C          2.5610845398        0.9177997193        0.8573201850
 C          3.3118449329       -0.3231928549        0.6034571342
 C          2.9480529471       -1.1162513311       -0.4212941161
 C          3.4817768473       -2.4580953923       -0.8772306168
 C          4.8493587839       -2.9535049791       -0.4132293944
 C          6.0348130082       -2.1286689109       -0.9114743967
 H          6.1199830954       -2.2569258608       -1.9935977627
 H          6.9431875887       -2.5308417333       -0.4573731378
 C          5.9608663204       -0.6301268112       -0.6283814896
 H          5.1285081531       -0.1919664064       -1.1830219217
 H          6.8770017478       -0.1725933078       -1.0118198031
 C          5.8320605577       -0.2475829968        0.8452163376
 H          5.9688389852        0.8348397003        0.9153292742
 H          6.6303659676       -0.7220856917        1.4190546480
 C          4.4829728029       -0.5868231476        1.5048127289
 H          4.3571124410        0.0674542134        2.3721667409
 H          4.4649311336       -1.6125756127        1.8653758364
 H          4.9629724660       -3.9660925715       -0.8100569728
 H          4.8748199979       -3.0352210805        0.6693394057
 H          3.4662762954       -2.4268640677       -1.9713088885
 H          2.7310811258       -3.1981852854       -0.5781538426
 O          1.9015262742       -0.7986412115       -1.2368376002
 C          1.1583284636        0.3604552090       -1.0765901566
 O          0.2570728574        0.4979509398       -1.9256392299
 O          2.8724505966        1.6599233472        1.8259500647
 C          0.6686611482        2.4617658638        0.2393914489
 C         -0.6895670668        2.0006000911        0.7046388468
 C         -0.8783925458        1.6582481288        2.0408851403
 C         -2.0792157395        1.1254869318        2.4716706823
 C         -3.1078556293        0.8960320896        1.5740551109
 C         -2.9218440884        1.2221863912        0.2375415972
 C         -1.7316973130        1.7965516297       -0.1863230335
 H         -1.6026029223        2.0363332610       -1.2294094183
 N         -3.9352198484        0.9268075153       -0.6937376287
 S         -4.5708107182       -0.6209835755       -0.6150749993
 O         -4.9478411069       -0.9551530976       -1.9711108558
 O         -5.6445185437       -0.6436318531        0.3488329150
 C         -3.2493555940       -1.6826636187       -0.0486248833
 C         -3.4642653306       -2.4934406526        1.0480123295
 C         -2.4399699687       -3.3153555048        1.4886632583
 C         -1.2200502135       -3.3108372349        0.8300825301
 C         -1.0214415456       -2.4940071818       -0.2718066334
 C         -2.0428841621       -1.6717826091       -0.7196517435
 H         -1.8875121430       -1.0218300068       -1.5664961713
 H         -0.0730271292       -2.4749962310       -0.7859623766
 H         -0.4192320081       -3.9451157619        1.1767078549
 H         -2.5931134004       -3.9520603550        2.3450652512
 H         -4.4251717332       -2.4588624905        1.5353647053
 H         -3.6778881191        1.1530826464       -1.6440743243
 H         -4.0444135194        0.4613678103        1.8844647354
 H         -2.2131150167        0.8726280226        3.5122289233
 H         -0.0624513594        1.7997676430        2.7354379393
 H          1.1675680719        2.9703007050        1.0745481921
 C          0.6296776811        3.3973682089       -0.9499635092
 C          0.1265521719        4.7966118635       -0.7618666802
 C          1.5840837156        4.5507079450       -1.0072639471
 H          2.0004549796        4.8270051591       -1.9644945013
 H          2.2697245409        4.6744088785       -0.1818998866
 H         -0.4598362741        5.2453682329       -1.5490833883
 H         -0.1792162027        5.0850761843        0.2324268466
 H          0.4045790358        2.9001210929       -1.8854729536
