  62
        -98.93398133
 C          2.5668851833        0.9344471747        0.2791266819
 C          2.6913148944       -0.1747043668        1.1464161279
 C          3.3845669630       -1.3594354733        0.6125992431
 C          3.8304454258       -1.3450906823       -0.6578003805
 C          4.6043286406       -2.3759355009       -1.4529983557
 C          4.7157596050       -3.8181905006       -0.9652537050
 C          3.4021975391       -4.5992732774       -0.9719044573
 H          3.1042310690       -4.7684419217       -2.0096805395
 H          3.5829057650       -5.5744346527       -0.5144871295
 C          2.2306802894       -3.9262595452       -0.2609528919
 H          1.3643878528       -4.5879397515       -0.3456144615
 H          1.9756088067       -2.9964454952       -0.7740400883
 C          2.4480169861       -3.6328214874        1.2223310264
 H          2.7414115097       -4.5484930085        1.7391654011
 H          1.4902652463       -3.3071811378        1.6374279932
 C          3.4834558723       -2.5389040203        1.5370687355
 H          3.2778024033       -2.1589067528        2.5420667242
 H          4.4941763223       -2.9396099731        1.5409005582
 H          5.4034686090       -4.3242821421       -1.6482564172
 H          5.1726046041       -3.8487777196        0.0195193288
 H          4.1636330892       -2.3694137317       -2.4549766952
 H          5.6157105575       -1.9682602475       -1.5597971909
 O          3.6624059058       -0.2583117504       -1.4669147656
 C          3.0250238180        0.8938689310       -1.0365503523
 O          2.9365801138        1.7826494082       -1.9035799703
 O          2.2427586416       -0.1777208978        2.3256627246
 C          1.8629850294        2.1827103377        0.7813848539
 C          0.5665511749        2.3622128764        0.0288774923
 C          0.2482526204        3.4988437694       -0.7005882793
 C         -0.9578503796        3.5796802367       -1.3764611028
 C         -1.8673574266        2.5398539738       -1.3378213477
 C         -1.5647014383        1.4017876620       -0.5997532811
 C         -0.3585923415        1.3253915552        0.0798449804
 H         -0.1197918005        0.4409083687        0.6576789534
 N         -2.4751579250        0.3278711997       -0.5613073773
 S         -4.1075071766        0.7136607295       -0.3500784455
 O         -4.6527513579        1.0997181490       -1.6273963863
 O         -4.2563297405        1.6790532132        0.7160304942
 C         -4.7782832171       -0.8629896372        0.1374226945
 C         -4.9987987333       -1.1211252162        1.4768966287
 C         -5.5070276947       -2.3566687572        1.8463253146
 C         -5.7808451242       -3.3084603252        0.8756717822
 C         -5.5530915106       -3.0346781822       -0.4649939160
 C         -5.0471205997       -1.8008293459       -0.8415524006
 H         -4.8645310016       -1.5399979776       -1.8709277617
 H         -5.7695512864       -3.7767113633       -1.2164942556
 H         -6.1772116797       -4.2686632950        1.1659109186
 H         -5.6876279795       -2.5711016319        2.8873844746
 H         -4.7791490095       -0.3484557802        2.1963140993
 H         -2.1868096256       -0.3855712157        0.0946370568
 H         -2.8088562863        2.5953370695       -1.8600379517
 H         -1.1923602277        4.4671545449       -1.9450120631
 H          0.9445810717        4.3195110626       -0.7478510921
 H          1.6150504560        1.9731506724        1.8324713910
 C          2.7797858130        3.3849619105        0.7289917036
 C          2.5291274427        4.5549690800        1.6312800753
 C          3.6960067638        3.6497764720        1.8845951936
 H          4.6900154849        4.0179108335        1.6797146181
 H          3.6463455583        2.9725005033        2.7247507662
 H          2.7228621278        5.5478919898        1.2548136429
 H          1.6852848380        4.4955438008        2.3020437277
 H          3.1641824469        3.5772677996       -0.2658889624
