  62
        -98.93543747
 C         -1.2899499527       -1.5650483736       -0.2222960450
 C         -2.6183742076       -1.5434488148        0.2804174779
 C         -3.4453030945       -0.3890013068       -0.0933033801
 C         -2.9226203708        0.5756612961       -0.8705520803
 C         -3.6288895737        1.8035276346       -1.3808985959
 C         -4.0539233380        2.8320864459       -0.3151689171
 C         -5.4962519848        2.6666829097        0.1795509672
 H         -6.0761929821        2.1571266230       -0.5910699744
 H         -5.9413561252        3.6562569569        0.3022304434
 C         -5.6657898748        1.9338280838        1.5140798423
 H         -6.7198516387        1.6665011687        1.6165454484
 H         -5.4208212764        2.6176677598        2.3300975880
 C         -4.8161054786        0.6765473065        1.7017798873
 H         -5.1747783738        0.1536191619        2.5907024729
 H         -3.7812401600        0.9599364395        1.9082440171
 C         -4.8197815948       -0.2911187976        0.5020029387
 H         -5.5418517904        0.0282174518       -0.2482232717
 H         -5.0906321856       -1.2950666526        0.8350179457
 H         -3.9640858932        3.8189878250       -0.7720546906
 H         -3.3586034879        2.7971151923        0.5231181285
 H         -4.5060024868        1.4917561438       -1.9524123991
 H         -2.9301484957        2.2740060316       -2.0753324453
 O         -1.6478188964        0.5204814884       -1.3338529457
 C         -0.7930483572       -0.5264855898       -1.0149066278
 O          0.3399436209       -0.3997006434       -1.5120868335
 O         -3.0947429490       -2.4542442787        1.0088997982
 C         -0.4013447378       -2.7123652835        0.2340818264
 C          0.8083668956       -2.1200316733        0.9077562556
 C          0.7493406617       -1.7643536654        2.2513105555
 C          1.8086389900       -1.1123765479        2.8557978706
 C          2.9271345944       -0.7617735982        2.1197850265
 C          2.9829698001       -1.0938057486        0.7726065147
 C          1.9505757931       -1.8111338821        0.1851803477
 H          2.0116114295       -2.0795675584       -0.8574137882
 N          4.0816718201       -0.6702674642       -0.0048959898
 S          4.3775891058        0.9811481665       -0.0225269878
 O          5.2117867024        1.2041889330       -1.1826562079
 O          4.9521406242        1.3597598771        1.2460905134
 C          2.8001399175        1.7874032827       -0.2310334598
 C          2.0661479191        2.1409450962        0.8831326534
 C          0.8228897064        2.7251407456        0.7063624147
 C          0.3406024726        2.9528938042       -0.5726838065
 C          1.0944101779        2.6009356855       -1.6802213291
 C          2.3327586187        2.0054524025       -1.5103063318
 H          2.9438982191        1.7114721017       -2.3484088895
 H          0.7136207759        2.7711421482       -2.6743901118
 H         -0.6318680780        3.4008534841       -0.7070429041
 H          0.2326921447        2.9961905345        1.5678063686
 H          2.4767477144        1.9601794525        1.8627847960
 H          4.0223904412       -0.9975791497       -0.9594807219
 H          3.7471046555       -0.2183900120        2.5612666618
 H          1.7571109408       -0.8575256362        3.9035590550
 H         -0.1434417599       -1.9954242165        2.8155664443
 H         -1.0017701529       -3.2335030405        0.9961940100
 C         -0.0523934709       -3.7491058173       -0.8220101283
 C         -1.1120052963       -4.2618413877       -1.7505490893
 C          0.0322915671       -3.4594258552       -2.2890630954
 H          0.7913157653       -3.9734977093       -2.8613414842
 H         -0.1553510370       -2.4524218621       -2.6243836658
 H         -1.1499054858       -5.3194688976       -1.9635331654
 H         -2.0823381908       -3.7895295103       -1.6976367941
 H          0.6487321528       -4.4841971512       -0.4372015541
