  62
        -98.94321054
 C          0.7488790435        1.9149412896        0.1672739700
 C          1.4364239492        1.1946521911        1.1691291862
 C          2.6878332558        0.5303944254        0.7642125626
 C          3.1008960437        0.6426038350       -0.5102813127
 C          4.2973568119       -0.0085700298       -1.1478124825
 C          3.9086116378       -1.3569034552       -1.7803080692
 C          4.0261029816       -2.5590975403       -0.8458532551
 H          3.6352259308       -3.4255571518       -1.3843553178
 H          5.0795226873       -2.7495934367       -0.6275911091
 C          3.2586054270       -2.4176917512        0.4703210619
 H          2.2818561220       -1.9780796460        0.2581684146
 H          3.0779541956       -3.4199072599        0.8649321308
 C          4.0115222739       -1.5925099962        1.5245929749
 H          4.0468641976       -2.1528517225        2.4613569997
 H          5.0447332926       -1.4650944545        1.2017387227
 C          3.4023766177       -0.2226839097        1.8538536879
 H          4.1867631477        0.4239774807        2.2621668944
 H          2.6543795484       -0.3391803137        2.6448211596
 H          2.8771031702       -1.2832276620       -2.1372382773
 H          4.5456791945       -1.5357830312       -2.6492347182
 H          5.1022644292       -0.1300384192       -0.4284618836
 H          4.6314960127        0.6651525864       -1.9396768742
 O          2.4184955663        1.3642197108       -1.4416100889
 C          1.2226499349        1.9940118480       -1.1423891730
 O          0.6962002917        2.5851440753       -2.1047135418
 O          1.0140983075        1.0951389231        2.3541114130
 C         -0.5879004345        2.5442658704        0.5045391454
 C         -1.7063037342        1.9011923017       -0.2832767267
 C         -2.8973354891        2.5600934271       -0.5676864863
 C         -3.9008420288        1.9174403262       -1.2717515301
 C         -3.7486902332        0.6109466272       -1.7008791501
 C         -2.5613633499       -0.0565665862       -1.4222962048
 C         -1.5638930103        0.5896711194       -0.7105498307
 H         -0.6395478673        0.0688390425       -0.5234377987
 N         -2.3454983546       -1.3679167904       -1.8602366350
 S         -1.2613275331       -2.3877645714       -1.1108075494
 O          0.0931716537       -1.9472720864       -1.3310045602
 O         -1.5947890885       -3.6940093241       -1.6384017737
 C         -1.6809514472       -2.3235874375        0.6212957342
 C         -2.9165567343       -2.8136594508        0.9991129183
 C         -3.2877156045       -2.7446779747        2.3314599190
 C         -2.4251246889       -2.1813578678        3.2604855698
 C         -1.1866638621       -1.6996599319        2.8677680409
 C         -0.8085579806       -1.7743055207        1.5367797151
 H          0.1484331376       -1.4015105237        1.2072384953
 H         -0.5118240678       -1.2476174628        3.5772595238
 H         -2.7174421184       -2.1184127512        4.2967785063
 H         -4.2480467691       -3.1240087738        2.6414758594
 H         -3.5564192177       -3.2511810347        0.2502573562
 H         -3.1429966964       -1.8462270122       -2.2489156734
 H         -4.5302330470        0.1165692149       -2.2566741204
 H         -4.8181560186        2.4424540288       -1.4907338180
 H         -3.0347153310        3.5792675604       -0.2448488583
 H         -0.7555366600        2.3198692370        1.5696384716
 C         -0.5394385085        4.0492739641        0.3285481172
 C         -1.2927282970        4.9520289554        1.2582470077
 C          0.2008893725        4.8709511769        1.3400626340
 H          0.7876470648        5.7086823840        0.9944237114
 H          0.6401945121        4.3462275640        2.1760322087
 H         -1.7334267781        5.8520920205        0.8566001517
 H         -1.8642800783        4.4930659784        2.0508536749
 H         -0.4522614461        4.3410004363       -0.7119423201
