  62
        -98.94074168
 C          1.1188461719        1.4350733342        0.1084731433
 C          1.6303798143        0.5545906705        1.0887517013
 C          2.5159128343       -0.5297465863        0.6251454827
 C          2.7569595067       -0.6445608213       -0.6942108488
 C          3.6729436948       -1.6119988414       -1.3967967433
 C          5.1580472506       -1.2542866471       -1.2252376602
 C          5.5715548273       -0.8795958991        0.1951901698
 H          6.6166369476       -0.5604910532        0.1628535110
 H          4.9824101423       -0.0226978246        0.5264775095
 C          5.4579072891       -2.0025530936        1.2235297902
 H          6.0655218973       -2.8501338575        0.8988371314
 H          5.8833233975       -1.6296436309        2.1588103125
 C          4.0401395677       -2.5006041693        1.5138252536
 H          4.0848513939       -3.0931764730        2.4323275449
 H          3.6919043122       -3.1706551128        0.7323547584
 C          3.0181031998       -1.3945150870        1.7561787969
 H          3.4069002066       -0.7083039631        2.5172492856
 H          2.1212555126       -1.8392645504        2.2048528523
 H          5.3771878503       -0.4004971133       -1.8710069776
 H          5.7570465269       -2.0991158455       -1.5695812341
 H          3.4818944964       -2.6272487129       -1.0619459719
 H          3.4304291979       -1.5584787057       -2.4603725479
 O          2.1844102275        0.1857819179       -1.6099775295
 C          1.3426872317        1.2215667447       -1.2517563198
 O          0.8773717310        1.8578244555       -2.2143548662
 O          1.3675545116        0.6698186846        2.3182158397
 C          0.2266874838        2.5800585163        0.5621087214
 C         -1.1990355282        2.2051506617        0.2450240315
 C         -1.9473512148        2.7813975949       -0.7719429377
 C         -3.2265650310        2.3242604899       -1.0433800175
 C         -3.7843136610        1.2920665350       -0.3106483753
 C         -3.0423656154        0.7130560454        0.7109237886
 C         -1.7640718721        1.1702319350        0.9818468068
 H         -1.1813891528        0.7113854591        1.7704585889
 N         -3.5907603944       -0.3623821770        1.4490958580
 S         -3.8343455031       -1.7566989967        0.5516429714
 O         -4.9598827715       -1.5561728106       -0.3242314369
 O         -3.9569008156       -2.8272392899        1.5146849376
 C         -2.3411663216       -1.9472157431       -0.4057105487
 C         -1.2495388369       -2.5502377098        0.1862669404
 C         -0.0724880859       -2.6620684119       -0.5349504396
 C         -0.0058664070       -2.1621328194       -1.8262510330
 C         -1.1050858641       -1.5439281082       -2.4003963107
 C         -2.2863923465       -1.4332086764       -1.6852654879
 H         -3.1647324242       -0.9667108031       -2.1002119280
 H         -1.0407571211       -1.1415566400       -3.3985836084
 H          0.9093288978       -2.2498453216       -2.3894412372
 H          0.7885292261       -3.1326188796       -0.0878319642
 H         -1.3433130818       -2.9359033420        1.1891498061
 H         -3.0391003463       -0.5905747468        2.2651578120
 H         -4.7716030234        0.9138519882       -0.5213725238
 H         -3.7962374652        2.7774478854       -1.8404058937
 H         -1.5228996169        3.5756399451       -1.3631425447
 H          0.3286538655        2.6101942966        1.6561598056
 C          0.6605448953        3.9133731930       -0.0041284101
 C          0.1645471924        5.1756322784        0.6336211713
 C          1.5992503463        4.7718867502        0.7874917489
 H          2.3539276071        5.3336027940        0.2577870459
 H          1.9259544614        4.4029954277        1.7489529208
 H         -0.0670798693        6.0180883513        0.0001917517
 H         -0.4841958502        5.0790016541        1.4911601180
 H          0.7880727178        3.9019006832       -1.0792929171
