  62
        -98.94200684
 C         -0.7172902493       -1.2995158892        0.5372167402
 C         -1.1550535197       -0.8343609499       -0.7240561600
 C         -2.1419968698        0.2599606800       -0.7071906303
 C         -2.5410482696        0.7621097706        0.4740962795
 C         -3.6214975597        1.7803012605        0.7129286693
 C         -4.9687867896        1.0813851805        0.9679620799
 C         -5.7839521498        0.7759969997       -0.2881001397
 H         -6.6451737897        0.1793031198        0.0214595108
 H         -6.1664852200        1.7107550095       -0.7032859701
 C         -5.0352249200        0.0215645193       -1.3899542295
 H         -5.7789593001       -0.4489376212       -2.0362176891
 H         -4.4392301898       -0.7794071304       -0.9485218192
 C         -4.1384229303        0.9300434889       -2.2439900002
 H         -4.3966227804        1.9701881690       -2.0468889707
 H         -4.3496228805        0.7535269283       -3.3005806600
 C         -2.6275570702        0.7247183292       -2.0524654604
 H         -2.2736203203       -0.0395864011       -2.7511585101
 H         -2.1037465404        1.6508144992       -2.3079101210
 H         -4.7698327493        0.1544995108        1.5122574504
 H         -5.5759221395        1.7156509507        1.6171523198
 H         -3.3436908796        2.3328694810        1.6118019789
 H         -3.6946309400        2.4705668701       -0.1212240211
 O         -2.0370814693        0.3317617813        1.6642924296
 C         -1.1261888991       -0.7056039286        1.7293480400
 O         -0.7607468888       -1.0027064879        2.8861156500
 H          1.5999584405       -0.2069995689        0.4558692991
 C          2.0534107605       -0.9714685891       -0.1584656706
 C          1.4719544706       -2.2317305092       -0.2073691498
 C          2.0737780406       -3.2116238796       -0.9866667995
 C          3.2205178104       -2.9252564098       -1.7065347099
 C          3.7924039702       -1.6677744997       -1.6597313507
 C          3.2002602302       -0.6810027594       -0.8784527511
 N          3.7320346501        0.6131747007       -0.8392450219
 S          3.4744400202        1.6358753914        0.4473100077
 O          4.4362143200        2.7002156714        0.2490055269
 O          3.5574270006        0.9462028720        1.7141375480
 C          1.8414709801        2.2952889610        0.1940152077
 C          1.0084540403        2.4643900215        1.2816134778
 C         -0.2306433298        3.0539254112        1.0928169778
 C         -0.6151273602        3.4587452105       -0.1755516123
 C          0.2289421596        3.2729289900       -1.2592749624
 C          1.4720051897        2.6896919903       -1.0760670724
 H          2.1550357096        2.5355205800       -1.8947018125
 H         -0.0741913007        3.5865137695       -2.2454520825
 H         -1.5770007703        3.9248138003       -0.3169114023
 H         -0.8867135896        3.1910267716        1.9374959079
 H          1.3384584606        2.1229516220        2.2509259979
 H          4.6247238700        0.7443490406       -1.2896191121
 H          4.6845527800       -1.4449634899       -2.2244954210
 H          3.6766732003       -3.6937420800       -2.3120132496
 H          1.6435775507       -4.1984885796       -1.0343880189
 C          0.2322450608       -2.4796532490        0.6163911706
 H          0.5375534311       -2.5567896184        1.6711971705
 C         -0.5014978091       -3.7481839593        0.2267433814
 C         -0.1418638787       -5.0601709389        0.8546717920
 C         -1.4262179288       -4.3809773489        1.2211928020
 H         -2.3548718788       -4.8036660892        0.8680391824
 H         -1.5008597486       -3.9134098584        2.1926584217
 H          0.6532085914       -5.0644057884        1.5850978518
 H         -0.1920233088       -5.9533484892        0.2501770525
 H         -0.8113747793       -3.7437549399       -0.8122227585
 O         -0.7597699299       -1.3242095804       -1.8141354898
