  62
        -98.93839900
 C         -1.7791018973       -0.6457173816       -0.0400275498
 C         -2.9008025787       -1.2950901444        0.5240182012
 C         -4.2130234554       -0.9608775064       -0.0560345173
 C         -4.2710385826       -0.0836644699       -1.0732480272
 C         -5.5018389467        0.4318692200       -1.7668304911
 C         -5.9759574820        1.7475533566       -1.1262407633
 C         -6.9210768166        1.5816113511        0.0632845801
 H         -7.0721507713        2.5722488920        0.4984009171
 H         -7.8907531900        1.2304541049       -0.2957705282
 C         -6.4325398217        0.6318419265        1.1600789019
 H         -5.3723709231        0.8069241132        1.3519540464
 H         -6.9713777673        0.8750228010        2.0779162581
 C         -6.6657074140       -0.8487144015        0.8244564962
 H         -7.3368738053       -0.9181696135       -0.0313383084
 H         -7.1776707807       -1.3320903449        1.6590996954
 C         -5.3946674978       -1.6665989976        0.5518399496
 H         -5.0164345079       -2.0758396769        1.4939292585
 H         -5.6506243902       -2.5239568430       -0.0794979380
 H         -5.0892638866        2.3079346582       -0.8182012559
 H         -6.4890906957        2.3417208429       -1.8851787218
 H         -5.2142650871        0.6328288536       -2.8009506361
 H         -6.2899203141       -0.3152120511       -1.7610953805
 O         -3.1630279690        0.5159878855       -1.5914890793
 C         -1.8962978708        0.2598511035       -1.0937130760
 O         -0.9824352903        0.8869074824       -1.6625228371
 H          2.1593664955       -0.0538273621       -0.0075375352
 C          1.5936521063        0.6163955075        0.6171396421
 C          0.2846625802        0.3161247512        0.9607804831
 C         -0.4136477185        1.2087087218        1.7704980479
 C          0.1732502748        2.3832406359        2.1974651242
 C          1.4711966195        2.6920697931        1.8301075192
 C          2.1840002208        1.8014412926        1.0367834978
 N          3.5166701245        2.0674856688        0.7023422385
 S          4.2477141058        1.4617319410       -0.6694622290
 O          5.4572982733        2.2487978736       -0.7951999028
 O          3.3734960402        1.4662874826       -1.8181466491
 C          4.6948952817       -0.2075704253       -0.2376215861
 C          4.6774056635       -1.1744361489       -1.2231906750
 C          5.0697310269       -2.4656670801       -0.9055639805
 C          5.4694368284       -2.7667407174        0.3872697402
 C          5.4817954940       -1.7841947478        1.3653677041
 C          5.0966225520       -0.4901987194        1.0529206430
 H          5.0948290305        0.2959584744        1.7890352853
 H          5.7910000215       -2.0222872215        2.3703331326
 H          5.7701103490       -3.7730263036        0.6325782199
 H          5.0605758859       -3.2300505129       -1.6665500606
 H          4.3452503666       -0.8997639346       -2.2121671063
 H          3.8541353025        2.9861316578        0.9469340455
 H          1.9285225476        3.6144948891        2.1538592325
 H         -0.3847795917        3.0692343713        2.8170354647
 H         -1.4306659290        0.9713612965        2.0519807167
 C         -0.3995541545       -0.9509312841        0.5133888828
 H         -0.5755456818       -1.5778627299        1.4006498603
 C          0.4038083682       -1.7504962443       -0.4908155731
 C          1.4315547470       -2.7343435575       -0.0193662123
 C          0.1452735421       -3.2212822263       -0.6139616993
 H          0.1644114357       -3.6668863921       -1.5971968061
 H         -0.5969350376       -3.6481604501        0.0446214701
 H          2.3390479523       -2.8462117728       -0.5930059120
 H          1.5687819789       -2.8389596228        1.0460832584
 H          0.6005380244       -1.1966545311       -1.4031873906
 O         -2.8118446018       -2.1119684210        1.4804605452
