  62
        -98.93846235
 C         -2.5171222705       -0.9532343385       -0.4904809704
 C         -3.1807263204       -0.1922004488        0.5069180200
 C         -3.4432550599        1.2171198714        0.1978871507
 C         -3.0537369396        1.7062480320       -0.9929939489
 C         -3.1771294291        3.1418074822       -1.4133003182
 C         -1.9108440889        3.9308705016       -1.0526448176
 C         -1.4529547191        3.7425219807        0.3939795124
 H         -1.1140948695        2.7115189905        0.5260488619
 H         -0.5795783289        4.3818838703        0.5404450029
 C         -2.5163544492        4.0779493204        1.4493977524
 H         -2.0489260191        4.6698402598        2.2390367628
 H         -3.2985982489        4.6927336409        1.0025949027
 C         -3.1519123796        2.8603805402        2.1230937317
 H         -3.7113342396        3.2074530799        2.9959582218
 H         -2.3671433599        2.1887466198        2.4810378614
 C         -4.1181893298        2.0467775810        1.2533433111
 H         -4.6359839201        1.3372100108        1.9052827706
 H         -4.8608120495        2.7102946115        0.8057575014
 H         -2.0975950085        4.9894621618       -1.2441045470
 H         -1.0996666789        3.6012628017       -1.7066968376
 H         -4.0455403690        3.5840460422       -0.9286275680
 H         -3.3183733389        3.1733502729       -2.4950438882
 O         -2.4564924497        0.9433430523       -1.9408606493
 C         -2.1410601902       -0.3944994879       -1.7130256600
 O         -1.5705729802       -0.9338058476       -2.6786833602
 O         -3.5376077607       -0.6811695794        1.6134764297
 C         -2.1614279310       -2.3746688788       -0.0907442411
 C         -0.9676096911       -2.3547677097        0.8331623990
 C         -0.8978570015       -3.1955938204        1.9377618886
 C          0.2119441884       -3.1773074712        2.7640162287
 C          1.2682785287       -2.3230754714        2.5060418093
 C          1.1989067291       -1.4620791207        1.4152895098
 C          0.0866591592       -1.4873846499        0.5874980997
 H          0.0450029395       -0.8204999494       -0.2614989900
 N          2.2288113094       -0.5426777209        1.1641403305
 S          2.4832875698        0.0006731899       -0.4136356392
 O          1.5293737502        1.0410502704       -0.7033039587
 O          2.5291863796       -1.1239061696       -1.3204548898
 C          4.1111334000        0.7068888393       -0.2375645986
 C          5.2162506498       -0.0553463909       -0.5664916989
 C          6.4802999800        0.4876406186       -0.3977130184
 C          6.6173115903        1.7759392583        0.0969630623
 C          5.4989500605        2.5296331085        0.4211792626
 C          4.2321861603        1.9928968690        0.2538032621
 H          3.3338638805        2.5424525891        0.4826588623
 H          5.6088570008        3.5320983882        0.8020611732
 H          7.6018112304        2.1964853779        0.2275591827
 H          7.3509629398       -0.0946116015       -0.6528277786
 H          5.0596768495       -1.0480188406       -0.9570820295
 H          3.0924462893       -0.7675097214        1.6382744104
 H          2.1339639786       -2.3078240520        3.1502071895
 H          0.2561540081       -3.8363028117        3.6177208484
 H         -1.7264220717       -3.8537356502        2.1540182281
 H         -3.0201681112       -2.7398397889        0.4973316386
 C         -1.9687586511       -3.3314377282       -1.2558931116
 C         -0.6224535212       -3.6881910884       -1.8029410517
 C         -1.4085446816       -4.7057958085       -1.0351015723
 H         -1.8474516418       -5.5304098681       -1.5759111728
 H         -1.0646899018       -4.9564330092       -0.0433545524
 H         -0.5311570011       -3.7903951878       -2.8735056317
 H          0.2489839189       -3.2433164789       -1.3453954113
 H         -2.7690324910       -3.2428396976       -1.9833207117
