  62
        -98.93373365
 C         -2.6795354954       -0.2541777898       -0.4562762685
 C         -2.8494309171        0.6728624931        0.6058141602
 C         -2.4405718832        2.0583852959        0.3488772069
 C         -1.9675058550        2.3841979338       -0.8669887162
 C         -1.4000631789        3.7182963464       -1.2590159991
 C          0.0549874701        3.8256139672       -0.7570195738
 C          0.2742333608        4.8725141267        0.3373181287
 H          1.2548076070        4.6785476230        0.7774330285
 H          0.3063664484        5.8630675991       -0.1223352138
 C         -0.7720503093        4.9147535346        1.4549908178
 H         -0.3488036568        5.5171642213        2.2616353075
 H         -1.6610330002        5.4420421383        1.1054190149
 C         -1.1991396901        3.5570528834        2.0279735108
 H         -1.3041534518        3.6590632823        3.1102275088
 H         -0.4264927264        2.8053134335        1.8541819841
 C         -2.5436400704        3.0325387243        1.4879259449
 H         -3.0542964263        2.4845073665        2.2850078169
 H         -3.1807821611        3.8737844864        1.2023470009
 H          0.3709415414        2.8424801263       -0.3967127642
 H          0.7090533547        4.0719270259       -1.5953507154
 H         -1.4293032314        3.7774460505       -2.3473946353
 H         -2.0106352227        4.5184444121       -0.8472153780
 O         -1.8714711182        1.4853956630       -1.8771037003
 C         -2.1554484926        0.1402420273       -1.6862985968
 O         -1.8981726722       -0.5602323139       -2.6876718505
 H         -0.4347676579       -1.5590275435       -1.0807748826
 C         -0.4591903592       -2.0519361193       -0.1189682148
 C         -1.6766152483       -2.2659710847        0.5108889711
 C         -1.6777783806       -2.9047418334        1.7442972952
 C         -0.4891140283       -3.2889065127        2.3423125124
 C          0.7250449679       -3.0211609686        1.7347318681
 C          0.7314814766       -2.3993188074        0.4951375221
 N          1.9750406043       -2.0271947567       -0.0941365820
 S          2.4170408781       -0.4940583050        0.4902368594
 O          2.4737765365       -0.5704018020        1.9278612507
 O          1.5513359724        0.5272846581       -0.0624185448
 C          4.0631644810       -0.3370855499       -0.1750585063
 C          5.0900788769       -1.0171270553        0.4510055161
 C          6.3663195804       -0.9407631364       -0.0827095109
 C          6.5924301908       -0.1916346864       -1.2280964796
 C          5.5513948441        0.4854006693       -1.8448008535
 C          4.2716550639        0.4115904798       -1.3166788897
 H          3.4328828377        0.9251710194       -1.7597234431
 H          5.7292455123        1.0687113501       -2.7339344350
 H          7.5864678253       -0.1335799014       -1.6425809206
 H          7.1787716980       -1.4646803464        0.3942900681
 H          4.8661848057       -1.5795132959        1.3419685516
 H          1.8731333565       -1.9314443392       -1.0982853821
 H          1.6602078502       -3.2609382423        2.2128251742
 H         -0.5077267643       -3.7749011522        3.3058589434
 H         -2.6163106534       -3.0680160167        2.2530812764
 C         -2.9406120412       -1.7112400367       -0.1065393504
 H         -3.7131499805       -1.6973817958        0.6744630196
 C         -3.4251526220       -2.5782750884       -1.2485388753
 C         -4.1905234119       -3.8281231326       -0.9357353417
 C         -4.8919471191       -2.6519434409       -1.5440780496
 H         -5.2037499427       -2.7085848788       -2.5758195237
 H         -5.5564201884       -2.0739964297       -0.9185404704
 H         -4.0215276246       -4.6996449530       -1.5489109422
 H         -4.3843099639       -4.0508248365        0.1024156074
 H         -2.7481585951       -2.5984792878       -2.0920388719
 O         -3.3159278587        0.3426234701        1.7299558919
