  62
        -98.94266070
 C          1.9432951087        1.4439034787        0.0669840699
 C          1.7043768529        0.0788199728        0.3573363814
 C          2.8944449628       -0.7238183791        0.6722731908
 C          4.1082450785       -0.1466285198        0.7014821062
 C          5.4103664806       -0.8351341608        1.0079632713
 C          6.0341727733       -1.5524822892       -0.1973864982
 C          5.3275811499       -2.8380869319       -0.6303468888
 H          5.9924126579       -3.3470332543       -1.3311401629
 H          5.2041255462       -3.4919360523        0.2335261408
 C          3.9693583088       -2.6182802991       -1.3115936616
 H          3.9085697713       -3.2357185585       -2.2106858149
 H          3.8880676825       -1.5776320497       -1.6345758174
 C          2.7603263888       -2.9628085479       -0.4416304517
 H          1.8547378751       -2.7304429396       -1.0082942609
 H          2.7578314362       -4.0336381526       -0.2264575189
 C          2.7042015310       -2.1952859857        0.8853994381
 H          1.7155361457       -2.3391339709        1.3280300071
 H          3.4552283531       -2.5802111192        1.5746154105
 H          6.0705203168       -0.8558937648       -1.0383934191
 H          7.0635075376       -1.8022207211        0.0702338345
 H          5.2671365270       -1.5462069442        1.8220860734
 H          6.1018164907       -0.0586123153        1.3421704320
 O          4.2905116202        1.1807205344        0.4667127423
 C          3.2221731988        2.0016715531        0.1411680754
 O          3.5336751624        3.1951014804       -0.0444455089
 O          0.5671600147       -0.4558001195        0.3597963743
 C          0.8094281630        2.3852415563       -0.2989563996
 C         -0.3777911534        2.1502155010        0.6038802385
 C         -0.2095827741        2.3031495068        1.9783617552
 C         -1.2640544585        2.0974410882        2.8454851091
 C         -2.5104458801        1.7392714305        2.3615772511
 C         -2.6932273221        1.5935055630        0.9917275853
 C         -1.6306112067        1.8059596791        0.1219582436
 H         -1.7964721931        1.6705181944       -0.9330609778
 N         -3.9633460356        1.2823047438        0.4815766790
 S         -4.2486799191        0.2101495916       -0.7658830418
 O         -3.4967338477        0.5934044645       -1.9331049953
 O         -5.6887890989        0.2124689759       -0.9087552040
 C         -3.7285140614       -1.3927553433       -0.1779768390
 C         -2.3841692344       -1.6584262404       -0.0125363648
 C         -2.0073660773       -2.9042675256        0.4653339201
 C         -2.9677051565       -3.8571300685        0.7656405827
 C         -4.3143227172       -3.5724105233        0.5949279601
 C         -4.7000110367       -2.3288578935        0.1224377949
 H         -5.7342200906       -2.0640756675       -0.0275656959
 H         -5.0619283621       -4.3133112111        0.8289271449
 H         -2.6648412479       -4.8246495945        1.1343983163
 H         -0.9570465464       -3.1086296465        0.5995671784
 H         -1.6402788209       -0.9115221997       -0.2376478906
 H         -4.6799843768        1.1849305905        1.1860280810
 H         -3.3354468176        1.5770178173        3.0386407740
 H         -1.1159936101        2.2129324407        3.9087823838
 H          0.7665870665        2.5766647175        2.3567686245
 H          1.1953716631        3.3969776109       -0.0887415072
 C          0.4444282905        2.3555126586       -1.7761140625
 C          1.4592006381        2.0195647965       -2.8266332833
 C          0.3333101640        1.0734457333       -2.5428588941
 H         -0.4640448899        0.9759132734       -3.2656363450
 H          0.5539289644        0.1577988505       -2.0173507869
 H          1.4448115403        2.5802254040       -3.7492192308
 H          2.4521925598        1.7486947781       -2.4974181457
 H         -0.2653271987        3.1360831226       -2.0344304243
