  62
        -98.93730308
 C          1.8465243633        1.3494609169        0.4035931622
 C          2.6202562485        0.9234518893       -0.7024787997
 C          3.8486670846        0.1773567525       -0.3809106552
 C          4.1457444711       -0.0785165287        0.9058920360
 C          5.3153215882       -0.8887214134        1.3884273549
 C          5.0333596454       -2.3923800976        1.1947896659
 C          5.9508330568       -3.0800567843        0.1835757631
 H          6.9304087404       -3.2346151640        0.6408514558
 H          5.5263143074       -4.0641721873       -0.0263859436
 C          6.1624832076       -2.3358762924       -1.1382985489
 H          6.8978488312       -1.5420593053       -0.9989512287
 H          6.6038207471       -3.0493964882       -1.8373980739
 C          4.9048757902       -1.7332930219       -1.7780527441
 H          4.0112916025       -2.2624128410       -1.4456060574
 H          4.9726723954       -1.8753986217       -2.8585748798
 C          4.7233225502       -0.2231303521       -1.5366978399
 H          4.2390675662        0.2130452983       -2.4155007469
 H          5.7039720379        0.2495391754       -1.4324539665
 H          3.9934001069       -2.5091093304        0.8818381425
 H          5.1323157150       -2.9077927545        2.1514398546
 H          6.2130050005       -0.5950922403        0.8489175816
 H          5.4533258360       -0.6617347081        2.4458214531
 O          3.3532768133        0.3119365664        1.9386726164
 C          2.1895179742        1.0286587958        1.7163543642
 O          1.5521458461        1.3100995162        2.7525735903
 O          2.3097329761        1.1567701519       -1.8990327846
 C          0.5700929723        2.1453512229        0.1871211400
 C         -0.4403471260        1.2844374665       -0.5319959035
 C         -1.0425466455        1.6328979697       -1.7325434193
 C         -1.9494028078        0.7764169435       -2.3350299832
 C         -2.2846238190       -0.4303138982       -1.7505562156
 C         -1.7034318364       -0.7781186481       -0.5366201772
 C         -0.7926909417        0.0776361872        0.0619128829
 H         -0.3359716270       -0.1944302037        1.0059341700
 N         -2.0604485256       -1.9889208907        0.0814175323
 S         -3.6891895579       -2.3730400993        0.1462213100
 O         -3.8409459124       -3.1871603531        1.3318954837
 O         -4.0891315198       -2.9907468549       -1.0937127754
 C         -4.5332975425       -0.8128326090        0.3409088595
 C         -4.2328635034       -0.0427499747        1.4470925693
 C         -4.8514501274        1.1879281145        1.5946118387
 C         -5.7556302350        1.6253496832        0.6385825393
 C         -6.0516605046        0.8375250200       -0.4626407464
 C         -5.4342065954       -0.3934210977       -0.6165197538
 H         -5.6316229746       -1.0361154933       -1.4588979799
 H         -6.7565061704        1.1791975464       -1.2032475221
 H         -6.2316508178        2.5861165884        0.7548704687
 H         -4.6219069427        1.8012325213        2.4512945033
 H         -3.5276343356       -0.4110617885        2.1753327236
 H         -1.6121847283       -2.1411228366        0.9727175212
 H         -2.9776408701       -1.1130809935       -2.2148204852
 H         -2.4000148162        1.0528433532       -3.2757848358
 H         -0.7933694831        2.5682857534       -2.2047145103
 H          0.1753376670        2.3552791399        1.1916937433
 C          0.8644534955        3.4593702867       -0.5032107978
 C         -0.0705314824        4.6175310309       -0.3321582232
 C          1.2745803085        4.6363904068        0.3279497487
 H          2.0324966464        5.3010285091       -0.0587414921
 H          1.3238055122        4.4967063125        1.3983451072
 H         -0.2368446328        5.2748852862       -1.1719128689
 H         -0.9385605013        4.4701659886        0.2922258799
 H          1.3545230411        3.3307085616       -1.4606855821
