  62
        -98.93763705
 C         -2.4021549201       -1.3563950210        0.3845013995
 C         -2.6636324803       -0.6065527606       -0.7872922402
 C         -3.5279442705        0.5739375892       -0.6189051096
 C         -3.9778092205        0.8902363686        0.6087470005
 C         -4.7953719707        2.1022622683        0.9546557511
 C         -3.8930535209        3.3520070785        1.0018928716
 C         -4.2030895411        4.3933355189       -0.0735580080
 H         -5.1117585012        4.9311900986        0.2048312823
 H         -3.3813694512        5.1128105390       -0.0775683077
 C         -4.3960549511        3.8488185395       -1.4920114882
 H         -5.3999361010        3.4336015093       -1.5925004883
 H         -4.3426699013        4.7031561398       -2.1700241978
 C         -3.3810475109        2.7934177598       -1.9504232487
 H         -2.4463568409        2.8872698697       -1.3958592687
 H         -3.1442436410        2.9835194503       -2.9993676486
 C         -3.8835201607        1.3401794897       -1.8629241693
 H         -3.4326266806        0.7682326401       -2.6793630396
 H         -4.9676382907        1.3205743996       -2.0053795993
 H         -2.8533043008        3.0296982387        0.9073569114
 H         -3.9842943509        3.8310000780        1.9780394718
 H         -5.5891277107        2.2310143685        0.2222527512
 H         -5.2457869006        1.9222552979        1.9309814810
 O         -3.6653250403        0.1698472582        1.7181121902
 C         -2.8742342901       -0.9640689416        1.6361473197
 O         -2.6600986100       -1.5219206421        2.7325394694
 O         -2.2079747903       -0.9075582700       -1.9208817303
 C         -1.5362990499       -2.6039332108        0.3202124089
 C         -0.1341551200       -2.2137433804       -0.0817705010
 C          0.5281584600       -2.7273086898       -1.1877082212
 C          1.8055006800       -2.2931291695       -1.5002866111
 C          2.4507392598       -1.3543555897       -0.7168889207
 C          1.7984971798       -0.8376659503        0.3957476795
 C          0.5182667099       -1.2696956007        0.7028540494
 H          0.0056325099       -0.8635736911        1.5672565896
 N          2.4525038497        0.1012867595        1.2143599099
 S          3.1309890194        1.4512951399        0.4798136404
 O          3.1765959393        2.4602701394        1.5163467208
 O          2.4293152193        1.8074287203       -0.7319625294
 C          4.7918350895        0.9323457303        0.1023692401
 C          5.5691032196        0.4423919900        1.1337220199
 C          6.8650324397        0.0357035303        0.8595645396
 C          7.3600559896        0.1285215310       -0.4328619303
 C          6.5685031595        0.6268669713       -1.4562325601
 C          5.2704452294        1.0341695309       -1.1890765899
 H          4.6156579793        1.4211559312       -1.9536573497
 H          6.9550559294        0.6987445018       -2.4601577901
 H          8.3687885196       -0.1896537688       -0.6437463805
 H          7.4833838698       -0.3524593999        1.6528016794
 H          5.1469998197        0.3897638495        2.1233878399
 H          1.9107729097        0.3753996090        2.0215899700
 H          3.4439828098       -1.0139465295       -0.9597611106
 H          2.3064947600       -2.6937934290       -2.3682091313
 H          0.0408142001       -3.4568012997       -1.8127699015
 H         -1.4941185598       -2.9929069413        1.3479514387
 C         -2.1654073998       -3.6521371706       -0.5715673115
 C         -1.8304176595       -5.0988532906       -0.3727547221
 C         -3.1832743196       -4.5828919410        0.0131562681
 H         -4.0346742196       -4.8596721609       -0.5902270919
 H         -3.4110672996       -4.4739381715        1.0638017782
 H         -1.7545606695       -5.7350530902       -1.2413564624
 H         -1.1386935994       -5.3466408808        0.4180282477
 H         -2.3358824999       -3.2974906102       -1.5808974913
