  62
        -98.93826460
 C         -1.8086189042       -0.0853464537        0.2821167519
 C         -2.9266003504       -0.5852973584        0.9863753754
 C         -4.2541624291       -0.0929739611        0.5703513513
 C         -4.3253575430        0.8003357038       -0.4342310871
 C         -5.5567383720        1.4105973049       -1.0491344312
 C         -6.2938158942        0.4400790208       -1.9865068110
 C         -6.4381539638       -0.9834140381       -1.4543514091
 H         -6.8695666614       -1.5935358511       -2.2523569326
 H         -5.4471943685       -1.3870105887       -1.2386001746
 C         -7.3271957471       -1.1308803776       -0.2218606266
 H         -8.3293180377       -0.7658023671       -0.4578073482
 H         -7.4058508195       -2.1992399235       -0.0048211165
 C         -6.8389028674       -0.4239818056        1.0441076280
 H         -7.4301279229       -0.8094406683        1.8799914496
 H         -7.0333000769        0.6440935683        0.9961614023
 C         -5.3760812017       -0.6792881106        1.3935185870
 H         -5.1970934800       -1.7601966429        1.4181515540
 H         -5.1986481729       -0.3356309619        2.4198899261
 H         -5.7354892584        0.3890929157       -2.9245092152
 H         -7.2805775545        0.8524787765       -2.2036521987
 H         -6.2195914715        1.7772066585       -0.2709429407
 H         -5.2216974175        2.2707130416       -1.6331059735
 O         -3.2161622215        1.2588799454       -1.0837076411
 C         -1.9406676040        0.8388263761       -0.7529883237
 O         -1.0334649877        1.3524649797       -1.4357525937
 O         -2.8266129171       -1.4139036100        1.9318532565
 C         -0.4221112189       -0.5671509476        0.6656663190
 C          0.4646515240        0.5999989618        1.0197824517
 C         -0.0240981746        1.5848712448        1.8747163238
 C          0.7517141186        2.6764109979        2.2110199479
 C          2.0346630566        2.8063836776        1.7092909527
 C          2.5412513686        1.8189154586        0.8728888956
 C          1.7607933075        0.7186791385        0.5423054760
 H          2.1658926713       -0.0262697445       -0.1212501395
 N          3.8569185707        1.9027931695        0.4069492643
 S          4.4280258560        1.0783431133       -0.9219609483
 O          5.7213011363        1.6799657654       -1.1735799521
 O          3.5047301641        1.0906468973       -2.0318961388
 C          4.6733100191       -0.5877554647       -0.3402346102
 C          5.0498363165       -0.8032730987        0.9706332683
 C          5.2776035753       -2.1021997224        1.3965197803
 C          5.1359163820       -3.1580286442        0.5093198559
 C          4.7637957683       -2.9250666712       -0.8054063546
 C          4.5288168899       -1.6285111036       -1.2360802650
 H          4.2250796312       -1.4032350346       -2.2464552841
 H          4.6543309843       -3.7467084070       -1.4954277307
 H          5.3145845756       -4.1678959979        0.8431191643
 H          5.5651731139       -2.2866431080        2.4190719337
 H          5.1509138695        0.0374767422        1.6361522875
 H          4.3322716539        2.7770876805        0.5681880960
 H          2.6385013832        3.6645469903        1.9614002470
 H          0.3538399198        3.4379089723        2.8649489510
 H         -1.0297089648        1.4885698829        2.2610814938
 H         -0.5666960541       -1.1773026396        1.5702127740
 C          0.1471623676       -1.4480429564       -0.4268412036
 C          1.0938767269       -2.5586680376       -0.0851362774
 C         -0.3064586330       -2.8733811828       -0.5154276570
 H         -0.4641678371       -3.3041352323       -1.4928192664
 H         -1.0086858963       -3.2145310983        0.2311393841
 H          1.9023039521       -2.7733139208       -0.7674554922
 H          1.3483009837       -2.6954737044        0.9548348837
 H          0.3002129716       -0.9105409953       -1.3572534851
