  62
        -98.94109590
 C          2.1988518449       -1.0109501416       -0.6645993968
 C          2.1857678019       -0.1153516979        0.4340233118
 C          3.0555396618        1.0634248574        0.3036215923
 C          3.7409077093        1.2744304198       -0.8335003767
 C          4.6527923389        2.4365679835       -1.1193462186
 C          6.0777313474        2.2596033020       -0.5767559656
 C          6.2161565378        2.3779665702        0.9416221961
 H          7.2830693722        2.4533033816        1.1605614178
 H          5.7488806579        3.3045982134        1.2764760980
 C          5.6342096885        1.1935045174        1.7258595341
 H          5.4951286588        0.3440440577        1.0531595004
 H          6.3451383349        0.8800952188        2.4934729461
 C          4.3095286993        1.4891657447        2.4295652345
 H          4.4642587199        2.2482849718        3.1994266482
 H          3.9706246298        0.5746584312        2.9230635136
 C          3.1907121460        1.9649042961        1.4933456626
 H          2.2446849644        1.9353384751        2.0404885836
 H          3.3763704619        2.9907752357        1.1750835519
 H          6.4574600107        1.2885450521       -0.9028624332
 H          6.6987794207        3.0309911245       -1.0378252519
 H          4.7068245772        2.5289876559       -2.2063480957
 H          4.2180421093        3.3511967002       -0.7146703101
 O          3.6579995849        0.4345760394       -1.9002932059
 C          2.9007882527       -0.7248702298       -1.8379739915
 O          2.9196870463       -1.4015254159       -2.8862287764
 H         -0.3083804789       -0.5633383204       -1.7335895408
 C         -0.7595812226       -1.0503715566       -0.8763442559
 C         -0.0207274119       -1.9955274385       -0.1745775856
 C         -0.6026799975       -2.6037651351        0.9289449153
 C         -1.8870895124       -2.2641926957        1.3171955623
 C         -2.6178780362       -1.3224466253        0.6167768084
 C         -2.0434231287       -0.7042347424       -0.4863176203
 N         -2.7802744266        0.2473131678       -1.2149257711
 S         -3.5262260178        1.4942782912       -0.3722318897
 O         -3.6699642114        2.5621782561       -1.3388361838
 O         -2.8204122220        1.8208765216        0.8447180731
 C         -5.1376111275        0.8385374089        0.0083594383
 C         -5.9144725922        0.3728213814       -1.0344052682
 C         -7.1723460509       -0.1371150384       -0.7554846466
 C         -7.6307586056       -0.1696864146        0.5532249676
 C         -6.8404932254        0.3058645326        1.5883807706
 C         -5.5806335899        0.8164574888        1.3162642153
 H         -4.9277733464        1.1911346887        2.0886901485
 H         -7.1984766202        0.2804475440        2.6050598623
 H         -8.6098077669       -0.5680149933        0.7677893744
 H         -7.7899450073       -0.5072563877       -1.5578772549
 H         -5.5220841417        0.4194702970       -2.0364719430
 H         -2.2837671880        0.6144950014       -2.0141111382
 H         -3.6155196234       -1.0518400882        0.9216657639
 H         -2.3247637830       -2.7383063841        2.1824569844
 H         -0.0411750223       -3.3219762191        1.5031589445
 C          1.3773208086       -2.2892968441       -0.6617244320
 H          1.3056320333       -2.5812180421       -1.7228294844
 C          2.0397984347       -3.4526048578        0.0611739175
 C          3.5329021148       -3.5563202450        0.1442322834
 C          2.7303169318       -3.2919246414        1.3807461698
 H          2.6361377203       -4.0855619201        2.1075747307
 H          2.7569596521       -2.3049808639        1.8140172317
 H          3.9874393611       -4.5277458076        0.0202673533
 H          4.1143465358       -2.7468329652       -0.2734871726
 H          1.5045435876       -4.3834409656       -0.0987763947
 O          1.4949382999       -0.2769208424        1.4718972122
