  62
        -98.93373900
 C          1.9815728835        0.6110273429       -0.0002197115
 C          2.6155837416       -0.5381696499        0.5363741043
 C          3.9624161464       -0.8528247153        0.0353661436
 C          4.5108116662       -0.0672010299       -0.9069016730
 C          5.8439356208       -0.2156963685       -1.5963774986
 C          7.0505609791       -0.6004580360       -0.7296668858
 C          7.0216970375       -0.0501407712        0.7037367327
 H          7.9700262528        0.4489961263        0.9113479472
 H          6.2321124386        0.6967334088        0.8022588979
 C          6.8253356260       -1.1420053769        1.7582490138
 H          7.1749590752       -0.7656331407        2.7226687609
 H          7.4506778461       -1.9982660879        1.4961670048
 C          5.3853416004       -1.6155658598        1.9529699780
 H          4.7982914911       -0.8285276511        2.4339702927
 H          5.4011100543       -2.4665866670        2.6382276482
 C          4.6446569437       -2.0299540579        0.6709538207
 H          5.3118783164       -2.5328501351       -0.0249470168
 H          3.8481617603       -2.7242659345        0.9523535040
 H          7.1408899304       -1.6851591088       -0.6913960556
 H          7.9388981630       -0.2300094758       -1.2441194100
 H          5.7306999294       -0.9506810853       -2.3987516679
 H          6.0274120369        0.7514006102       -2.0707433301
 O          3.8607980869        1.0177475823       -1.4099652681
 C          2.5919289924        1.3878608434       -0.9844453975
 O          2.1533546465        2.4043480058       -1.5526869060
 O          2.0723497525       -1.2751622925        1.4028813303
 C          0.5942697920        0.9307055628        0.5298814774
 C         -0.4427338697        0.2918127191       -0.3574233635
 C         -0.5767987811        0.6652067933       -1.6917639867
 C         -1.5341902594        0.0708044812       -2.4928883973
 C         -2.3774439087       -0.9021687022       -1.9827824399
 C         -2.2471312706       -1.2838757784       -0.6552079295
 C         -1.2853748157       -0.6860939452        0.1489431554
 H         -1.1803606683       -0.9963793387        1.1797655506
 N         -3.1326357914       -2.2479147880       -0.1254568662
 S         -4.7450295176       -1.7780346999       -0.1201591112
 O         -5.3877482000       -2.5966486226        0.8824648769
 O         -5.2712439381       -1.8757753971       -1.4572270140
 C         -4.6817057086       -0.0722576977        0.3960430515
 C         -4.7067217505        0.9292511718       -0.5533492424
 C         -4.5381730347        2.2424883557       -0.1443606917
 C         -4.3449092553        2.5298422800        1.1978353003
 C         -4.3303298315        1.5127707155        2.1401037142
 C         -4.4936796991        0.1974466661        1.7372173063
 H         -4.4896752514       -0.6209719431        2.4396166454
 H         -4.1837612433        1.7405843621        3.1838943630
 H         -4.1997185848        3.5513929782        1.5108013173
 H         -4.5496278419        3.0361229270       -0.8740197978
 H         -4.8583214190        0.6643801302       -1.5867186909
 H         -2.8673032626       -2.5615232305        0.7978331434
 H         -3.1389125783       -1.3656115027       -2.5892698122
 H         -1.6274535484        0.3691987725       -3.5261385367
 H          0.0795022245        1.4259302633       -2.0866470539
 H          0.5514679434        0.4221430135        1.5050755070
 C          0.3559038336        2.4176331089        0.7651903236
 C         -0.8493422304        3.1440663502        0.2502444771
 C         -0.7260086441        2.8479599542        1.7117605420
 H         -0.5250550588        3.6588179577        2.3951921984
 H         -1.3623783366        2.0744123295        2.1155249607
 H         -0.7111987578        4.1596695171       -0.0877150205
 H         -1.5797889909        2.5893849516       -0.3177907856
 H          1.2777728513        2.9869828904        0.7917392036
