  62
        -98.94283761
 C          1.1062585484        1.3917608869        0.4023921731
 C          1.4288772903        0.5563770677       -0.6952420706
 C          2.4384244628       -0.4788531840       -0.4327920778
 C          2.9489347207       -0.6278389220        0.8016701303
 C          3.9872864219       -1.6341311483        1.2186149175
 C          5.4289163056       -1.1915809402        0.9309202971
 C          5.8373600348       -1.2210303665       -0.5426093977
 H          6.9225136888       -1.1048661277       -0.5758094075
 H          5.6027471697       -2.1985794622       -0.9649488129
 C          5.1984988434       -0.1203526436       -1.4011320787
 H          4.8085478492        0.6675039441       -0.7523410592
 H          5.9627888127        0.3368325385       -2.0338195181
 C          4.0778747447       -0.6036318472       -2.3221826283
 H          4.4859430165       -1.2936934759       -3.0640248039
 H          3.6751512474        0.2618908767       -2.8545495246
 C          2.9179379701       -1.2958304067       -1.5941942846
 H          2.0858508682       -1.3995578866       -2.2945660488
 H          3.2234790895       -2.2871961939       -1.2620009451
 H          5.5723140284       -0.1842797206        1.3287719575
 H          6.0920088380       -1.8627296233        1.4816939430
 H          3.8799148626       -1.7658584420        2.2975248085
 H          3.7985646224       -2.5887824979        0.7268230885
 O          2.5490861707        0.1376030460        1.8506603892
 C          1.6489788996        1.1724569850        1.6728954567
 O          1.4102247426        1.8232408949        2.7094796879
 O          0.9217613429        0.6531272598       -1.8430520408
 C          0.1685854333        2.5862157862        0.2958490974
 C         -1.2668024670        2.1465373932        0.4083570645
 C         -2.0955890907        2.6291654783        1.4134499577
 C         -3.4033902851        2.1859783969        1.5237334779
 C         -3.9092614152        1.2522007971        0.6364479309
 C         -3.0847912857        0.7627065984       -0.3679307610
 C         -1.7779998168        1.2094639919       -0.4801620542
 H         -1.1389926027        0.8240754375       -1.2614622675
 N         -3.5773874688       -0.2281168921       -1.2528108149
 S         -3.7309247706       -1.7400678592       -0.5480348273
 O         -4.0089200240       -2.6587445100       -1.6276651157
 O         -4.7215473654       -1.6586806019        0.4945867486
 C         -2.1314994644       -2.0931069056        0.1610517680
 C         -1.2371229770       -2.8648423331       -0.5527133115
 C          0.0142367965       -3.1121079385       -0.0133639820
 C          0.3536202553       -2.5713256545        1.2168766084
 C         -0.5471744002       -1.7796671427        1.9115280211
 C         -1.8049453416       -1.5390758929        1.3829154843
 H         -2.5343440987       -0.9414071150        1.9052395613
 H         -0.2707232688       -1.3426521351        2.8585837824
 H          1.3252313794       -2.7664723189        1.6415043512
 H          0.7209993685       -3.7215594956       -0.5528079652
 H         -1.5425181952       -3.2686531329       -1.5047581574
 H         -3.0038980270       -0.3194609227       -2.0813411827
 H         -4.9162601381        0.8774270528        0.7209982136
 H         -4.0345923768        2.5693223556        2.3110094088
 H         -1.7041712890        3.3444890483        2.1220949076
 H          0.3964807138        3.2041480152        1.1778779978
 C          0.4499316617        3.4336756502       -0.9403388707
 C         -0.5506329992        3.6910307517       -2.0240483321
 C         -0.1838793383        4.7870991182       -1.0726001111
 H          0.4164696527        5.6102961684       -1.4292196526
 H         -0.9149655378        5.0640183039       -0.3277322773
 H         -0.1850900041        3.7391240611       -3.0387283203
 H         -1.5319102470        3.2517203326       -1.9373139648
 H          1.4840361651        3.3541064953       -1.2596596273
