  62
        -98.93904398
 C         -2.4540332606       -1.1882747800       -0.0327987199
 C         -3.0773633905       -0.3038678300        0.8766829302
 C         -3.6229149204        0.9456045201        0.3180026302
 C         -3.4847905205        1.1771655501       -1.0008278498
 C         -3.8896692904        2.4244899402       -1.7344665197
 C         -2.8582618403        3.5598617301       -1.5551737597
 C         -2.1482093603        3.5899077700       -0.2006560897
 H         -1.2997262202        4.2756161500       -0.2810026097
 H         -1.7280708403        2.6019731300        0.0038250002
 C         -3.0061823202        4.0443237400        0.9808047603
 H         -3.1928472402        5.1167599800        0.8829863004
 H         -2.4242927102        3.8911332600        1.8934358003
 C         -4.3585630003        3.3511850101        1.1332790503
 H         -5.0002858603        3.6141983502        0.2965239004
 H         -4.8329439502        3.7562962901        2.0321297704
 C         -4.3111612404        1.8348370101        1.3236936503
 H         -5.3416986304        1.4712367902        1.4197674303
 H         -3.8244314303        1.6124578200        2.2795542503
 H         -3.3513516403        4.5168914601       -1.7301759597
 H         -2.0860433304        3.4321045601       -2.3171219197
 H         -4.8796494804        2.7301268202       -1.4068484497
 H         -3.9488655905        2.1717076102       -2.7946831897
 O         -2.8672693606        0.3042820101       -1.8417177998
 C         -2.3215497606       -0.8842200399       -1.3878153399
 O         -1.7670036807       -1.5653278899       -2.2700170699
 O         -3.1548498305       -0.5372207900        2.1151622902
 C         -1.8122034707       -2.4574103000        0.5034044701
 C         -0.3164332707       -2.3202427301        0.3547916600
 C          0.4830903193       -3.2070923502       -0.3519756900
 C          1.8394973893       -2.9647467402       -0.4937766001
 C          2.4251667794       -1.8429144703        0.0633978300
 C          1.6347721594       -0.9544683303        0.7814107100
 C          0.2813317394       -1.2032769502        0.9279308001
 H         -0.3344597805       -0.5050422202        1.4827082601
 N          2.2215862195        0.2010092297        1.3444709900
 S          2.8117173496        1.3145703297        0.2247027201
 O          2.7930890497        2.5903408697        0.9077907701
 O          2.0865175395        1.2425119398       -1.0237081299
 C          4.5002130695        0.8048284996       -0.0119770000
 C          4.9269308895        0.3919041196       -1.2585985500
 C          6.2460900694       -0.0043798805       -1.4167088001
 C          7.1087674695        0.0188849194       -0.3314209401
 C          6.6642336895        0.4381254694        0.9139070299
 C          5.3473891596        0.8365366695        1.0786416400
 H          4.9607900996        1.1740256295        2.0256708100
 H          7.3381578296        0.4547322193        1.7551632199
 H          8.1339763395       -0.2914846707       -0.4574237402
 H          6.5931439994       -0.3304523105       -2.3839918701
 H          4.2171873894        0.3851185297       -2.0705890600
 H          1.5999303896        0.6789156997        1.9829176901
 H          3.4788027594       -1.6476527604       -0.0532534401
 H          2.4479902292       -3.6584739403       -1.0534868501
 H          0.0423526892       -4.0789582001       -0.8062978200
 H         -2.0492112306       -2.4729679300        1.5773537501
 C         -2.3901501908       -3.6955547600       -0.1441062099
 C         -2.3081423408       -5.0137280400        0.5644457600
 C         -3.6253645208       -4.3107293499        0.4398231001
 H         -4.3663390508       -4.7146887898       -0.2334151999
 H         -4.0440955307       -3.8457276999        1.3204515101
 H         -2.1463777609       -5.9051524800       -0.0221305200
 H         -1.8324908508       -5.0300992001        1.5332815700
 H         -2.3001129308       -3.6852344599       -1.2239010399
