  62
        -98.93688741
 C          1.3932570286        1.0823738657        0.0056396399
 C          2.7357204382        1.5322502947        0.0269101311
 C          3.7613400048        0.5555088759        0.4348114326
 C          3.3824769561       -0.6846081154        0.7948506975
 C          4.1869357200       -1.8720607231        1.2814522708
 C          5.7062943705       -1.8984347413        1.1374124670
 C          6.2113705554       -1.9842018668       -0.3026985370
 H          7.2996046890       -1.8921098563       -0.2893000696
 H          5.9666345937       -2.9732195401       -0.6983092601
 C          5.6376923962       -0.9487900056       -1.2668872938
 H          4.5595666706       -1.0937266634       -1.3620295889
 H          6.0744094894       -1.1314931624       -2.2525858214
 C          5.9122058916        0.5085481297       -0.9007758415
 H          5.5906482398        1.1264404878       -1.7439133785
 H          6.9854407842        0.6588964883       -0.7684872294
 C          5.1858247854        1.0234284659        0.3539074594
 H          5.7286311970        0.7635543999        1.2596202876
 H          5.1469248150        2.1153058326        0.2971869240
 H          6.0528943691       -2.7936684103        1.6609937861
 H          6.1483004471       -1.0468316508        1.6463474251
 H          3.7647306017       -2.7451452513        0.7739215617
 H          3.9382871621       -1.9831348882        2.3426030094
 O          2.0695636257       -1.0542015400        0.8168986787
 C          1.0445583982       -0.2003709142        0.4289548396
 O         -0.0871846074       -0.7051276922        0.5179692824
 O          3.0688923267        2.7099227972       -0.2747983823
 C          0.3243981326        2.0621526386       -0.4434675143
 C         -0.8555260628        2.0086092111        0.4917474879
 C         -0.6979161281        2.4653556072        1.7976686980
 C         -1.7435181967        2.4044257542        2.6979884076
 C         -2.9662976769        1.8809506362        2.3165639030
 C         -3.1344310399        1.4256052556        1.0143599044
 C         -2.0856763577        1.4990179374        0.1084937565
 H         -2.2398010377        1.1331512791       -0.8920378791
 N         -4.3696560166        0.9110741794        0.5999603194
 S         -4.4985961335       -0.2476487859       -0.5905816523
 O         -4.2290006785        0.3352663891       -1.8820782003
 O         -5.8379862803       -0.7721383562       -0.4137118130
 C         -3.3185954760       -1.5331442088       -0.2282412688
 C         -2.5065563777       -2.0053517571       -1.2364127340
 C         -1.6288415983       -3.0402939539       -0.9618506418
 C         -1.5774912096       -3.5806663944        0.3118269030
 C         -2.4012342884       -3.0956127379        1.3145012206
 C         -3.2836675625       -2.0640015610        1.0445486792
 H         -3.9371733005       -1.6700672104        1.8062745475
 H         -2.3513126254       -3.5133471192        2.3075297158
 H         -0.8840772837       -4.3787879723        0.5267494006
 H         -0.9804548554       -3.4127265323       -1.7396746899
 H         -2.5685250868       -1.5488809269       -2.2115617912
 H         -5.0515961280        0.7803044676        1.3316947881
 H         -3.7836274068        1.8249064759        3.0193123306
 H         -1.6057647071        2.7604979592        3.7078946339
 H          0.2624065523        2.8607003453        2.1000436389
 H          0.7973008518        3.0534539380       -0.3438903449
 C         -0.0715032257        1.9129117145       -1.9048212538
 C          0.9264557656        1.4808819024       -2.9357621080
 C         -0.2084147399        0.5757186063       -2.5663005131
 H         -1.0128585883        0.4408894487       -3.2754136736
 H          0.0007573151       -0.2999940072       -1.9714236702
 H          0.9096233059        1.9635129437       -3.9014180226
 H          1.9179036238        1.2223645502       -2.5935119374
 H         -0.7795236942        2.6774627633       -2.2117926221
