  62
        -98.93320118
 C         -2.4121618559       -0.9511218882        0.3117253957
 C         -2.8004226480        0.2512258741        0.9567447473
 C         -4.1906151440        0.7014984542        0.7719006751
 C         -5.0208287139       -0.0319541296        0.0075105873
 C         -6.4895375450        0.1340800435       -0.3230362023
 C         -7.2205984239        1.4328859799        0.0047115626
 C         -6.7858793892        2.6360666836       -0.8318972492
 H         -7.1337607182        2.4881240558       -1.8572975488
 H         -7.2816166850        3.5255891752       -0.4374926159
 C         -5.2815499072        2.8894752109       -0.8903553283
 H         -5.1127971172        3.7542096374       -1.5378621188
 H         -4.7826566552        2.0372879128       -1.3563894320
 C         -4.6142029657        3.1798098404        0.4523503817
 H         -3.5838378899        3.4850593798        0.2496890097
 H         -5.1197603707        4.0146216388        0.9418916522
 C         -4.5603317944        1.9975752904        1.4345400951
 H         -3.7725732905        2.2019386921        2.1657113797
 H         -5.4944966082        1.8965199856        1.9819688795
 H         -7.1380295818        1.6529021758        1.0649739204
 H         -8.2797658114        1.2546726359       -0.1997883625
 H         -6.5795654150       -0.0678514772       -1.3950914227
 H         -6.9996930148       -0.6896945794        0.1882134871
 O         -4.6023247286       -1.1784323553       -0.5999614575
 C         -3.3107274184       -1.6644278912       -0.4799877458
 O         -3.1215775516       -2.7159178011       -1.1229309590
 H          1.3146192944       -0.0205610217        0.7129504280
 C          1.1153905302       -0.3528903177       -0.2956778031
 C         -0.0478980938       -1.0520720295       -0.5818288471
 C         -0.2859202570       -1.4476304553       -1.8938936806
 C          0.6264542985       -1.1492570891       -2.8894385492
 C          1.8010689653       -0.4795167463       -2.5949887038
 C          2.0464487173       -0.0778648084       -1.2874013168
 N          3.2226607982        0.6104509133       -0.9515465045
 S          3.9240955218        0.2843603695        0.5508792432
 O          3.8427360954       -1.1293474676        0.8386931391
 O          3.3485040815        1.1692457998        1.5328117562
 C          5.6150073124        0.7532899860        0.2335765693
 C          6.5363733317       -0.2241872534       -0.0919426010
 C          7.8423953604        0.1504490986       -0.3660296281
 C          8.2019319676        1.4887851851       -0.3134515099
 C          7.2659479149        2.4584341235        0.0150820801
 C          5.9586427364        2.0908960909        0.2915328828
 H          5.1996641094        2.8071950413        0.5603043533
 H          7.5500250129        3.4975034250        0.0577790286
 H          9.2188957397        1.7778219643       -0.5267709259
 H          8.5728641149       -0.6012319130       -0.6183416019
 H          6.2126505714       -1.2524221369       -0.1120621330
 H          3.9052473058        0.6146407352       -1.6970552195
 H          2.5199823335       -0.2652989229       -3.3712521584
 H          0.4285148331       -1.4584237969       -3.9048089311
 H         -1.1875955957       -1.9948963572       -2.1217297691
 C         -0.9869304765       -1.4171801678        0.5434021266
 H         -0.6483074876       -0.8727740148        1.4363372192
 C         -0.8707594765       -2.9057627969        0.8206446652
 C          0.3980312457       -3.4309339009        1.4204291137
 C         -0.8592529127       -3.3960126148        2.2355680504
 H         -1.3538451076       -4.3287775352        2.4616879137
 H         -0.9366319239       -2.6581897549        3.0211769816
 H          0.7649839944       -4.3888482066        1.0846740065
 H          1.1811188449       -2.7208719769        1.6459320104
 H         -1.3687888969       -3.5182991529        0.0802593598
 O         -2.0145092791        0.9206779355        1.6814878063
