  62
        -98.93984252
 C         -2.3398526433       -0.9956616617        0.3845372951
 C         -2.6113496996        0.0641376320       -0.5157950972
 C         -3.6333158300        1.0269762479       -0.0777324157
 C         -4.2029388636        0.9049086126        1.1339110513
 C         -5.2353640242        1.8239376315        1.7279572010
 C         -6.6733442561        1.5083088393        1.2938344471
 C         -7.0126863529        1.8762641880       -0.1511588392
 H         -8.0973395346        1.8049990256       -0.2534160123
 H         -6.7360450625        2.9148239114       -0.3353993583
 C         -6.3582232808        0.9726320099       -1.2055074938
 H         -6.0129061644        0.0508125162       -0.7315211587
 H         -7.1017015246        0.6880834252       -1.9535371982
 C         -5.1880954406        1.6135363564       -1.9520529528
 H         -4.7784578306        0.8753561290       -2.6465339435
 H         -5.5479636266        2.4622146622       -2.5380453204
 C         -4.0475763284        2.0945949497       -1.0454419763
 H         -4.3458945314        2.9972292274       -0.5126987236
 H         -3.1848936381        2.3278162585       -1.6746369954
 H         -6.8600317898        0.4436453462        1.4521876288
 H         -7.3423784716        2.0646901692        1.9542035019
 H         -5.1691314035        1.7052751834        2.8115345425
 H         -4.9961862877        2.8574295783        1.4759162041
 O         -3.8763845969       -0.0965354996        1.9930086961
 C         -2.9691155371       -1.0767461058        1.6312288747
 O         -2.8046756230       -1.9612953177        2.4947248802
 O         -2.0414512065        0.2244677558       -1.6270293218
 C         -1.3679733061       -2.1242146201        0.0778819958
 C          0.0499801354       -1.7468095741        0.4207272162
 C          0.8449455574       -2.5798381955        1.1985547173
 C          2.1556450489       -2.2374157270        1.4827772872
 C          2.6984469320       -1.0607542687        0.9985100535
 C          1.9113340823       -0.2202900925        0.2220612905
 C          0.5979301036       -0.5654042000       -0.0599580166
 H         -0.0060151789        0.0836727041       -0.6772952896
 N          2.4545439340        0.9814628698       -0.2728002537
 S          3.8439715944        0.8475002662       -1.2110550423
 O          3.8614776883        2.0297208480       -2.0443034569
 O          3.8945722421       -0.4235009807       -1.8966142815
 C          5.1693256628        0.9538918467       -0.0268457275
 C          5.2080315254        2.0512893219        0.8110783845
 C          6.2392060601        2.1539323100        1.7310086033
 C          7.2105247307        1.1656516776        1.7944592711
 C          7.1592899352        0.0720184513        0.9438256249
 C          6.1294284289       -0.0376910904        0.0222455307
 H          6.0441233507       -0.8726915350       -0.6546123071
 H          7.9152821526       -0.6950101045        0.9945219173
 H          8.0119897399        1.2486200550        2.5114480268
 H          6.2820619651        3.0024888525        2.3946988596
 H          4.4354964853        2.7974436618        0.7275984623
 H          1.7711851698        1.5522721671       -0.7511540199
 H          3.7189433313       -0.7898278272        1.2150500927
 H          2.7616361634       -2.8937353604        2.0883272615
 H          0.4257762574       -3.4965649230        1.5870380610
 H         -1.6629689631       -2.9444296356        0.7509996822
 C         -1.5074240393       -2.6411251661       -1.3496873923
 C         -0.4577752766       -2.4830888310       -2.4049523199
 C         -0.7092109437       -3.8291091385       -1.7987484194
 H         -1.1955719865       -4.5862707425       -2.3948292210
 H          0.0353848031       -4.2119340873       -1.1170960183
 H         -0.7907965398       -2.2946317792       -3.4145589637
 H          0.4600047937       -1.9730938863       -2.1544985293
 H         -2.5357870209       -2.5930949177       -1.6942692479
