  62
        -98.94057178
 C          1.8376013794       -1.1331544202       -0.2549358977
 C          2.1132869768       -0.1065887928        0.6837872661
 C          3.5376879583        0.1777605804        0.9176365115
 C          4.4843614427       -0.5331878746        0.2815245501
 C          5.9719844003       -0.3762813241        0.4412096608
 C          6.5779218965        0.7361311692       -0.4254068975
 C          6.2599904630        2.1615045130        0.0285203045
 H          6.5090698601        2.2697802946        1.0846607396
 H          6.9177880568        2.8296930348       -0.5309094516
 C          4.8051391895        2.5920772535       -0.2062710086
 H          4.7874353282        3.5904409395       -0.6492536503
 H          4.3358404269        1.9165150620       -0.9253463385
 C          3.9463348072        2.6429918812        1.0575365425
 H          4.3271833642        3.4165602312        1.7281836356
 H          2.9283585001        2.9185398480        0.7691186056
 C          3.8784197385        1.3182966576        1.8284344380
 H          3.0849084523        1.3978863751        2.5756178571
 H          4.8227310659        1.1308050461        2.3391675935
 H          7.6625674728        0.6065067346       -0.4100001736
 H          6.2416439193        0.5988191338       -1.4557497577
 H          6.2115898750       -0.1940021311        1.4891979573
 H          6.4189934067       -1.3269422010        0.1422611933
 O          4.1802042376       -1.5226118009       -0.5994720495
 C          2.8645175666       -1.8178787460       -0.9142469794
 O          2.7383373633       -2.7038067855       -1.7827968639
 O          1.2397796507        0.5436398501        1.3124128405
 C          0.4233488653       -1.5146016235       -0.6640415862
 C         -0.3694419203       -0.2781205006       -1.0008748595
 C         -0.2527225427        0.2981990602       -2.2612143927
 C         -0.9693265860        1.4348517467       -2.5915393790
 C         -1.8093852187        2.0273070565       -1.6645758389
 C         -1.9159643153        1.4687594922       -0.3995113887
 C         -1.2150888866        0.3158134102       -0.0769622740
 H         -1.3033474947       -0.1053670155        0.9124179654
 N         -2.7903745206        2.0647764988        0.5446416619
 S         -4.3998590532        1.6822724093        0.2863010448
 O         -4.8059425999        2.2355698071       -0.9800757350
 O         -5.1203535231        2.1416636439        1.4519225845
 C         -4.4163337942       -0.1001590582        0.2101155692
 C         -4.5643173487       -0.8163416387        1.3810923396
 C         -4.4705266352       -2.1980189964        1.3383935639
 C         -4.2174774537       -2.8349098916        0.1329091775
 C         -4.0677964114       -2.1009413571       -1.0340730424
 C         -4.1647284732       -0.7191369716       -0.9980034598
 H         -4.0534514255       -0.1133965526       -1.8825709013
 H         -3.8663338324       -2.5987451052       -1.9691593846
 H         -4.1347098391       -3.9101801102        0.1022291155
 H         -4.5875366335       -2.7727164180        2.2432590165
 H         -4.7595933656       -0.2814933366        2.2969435541
 H         -2.5427378454        1.8331067052        1.4970552153
 H         -2.3872519905        2.9054439731       -1.9031553043
 H         -0.8718315192        1.8642969449       -3.5771721357
 H          0.4102194767       -0.1571356776       -2.9843625718
 H          0.5481700758       -2.0994307678       -1.5887656920
 C         -0.3105081140       -2.4134049973        0.3214344878
 C          0.4004296539       -3.5564974192        0.9799652741
 C         -0.0645709075       -2.3912738319        1.7984609309
 H         -0.9110541119       -2.5331581711        2.4546897324
 H          0.6729613154       -1.7040383908        2.1814616322
 H         -0.1167069836       -4.4985087949        1.0796834623
 H          1.4592719017       -3.6564671801        0.7888456909
 H         -1.3335878717       -2.5954669630        0.0056999807
