  62
        -98.93848688
 C         -2.5358911604       -1.1922857114        0.2208485772
 C         -2.6763402231       -0.3499736447       -0.9062507224
 C         -3.5438306897        0.8307203633       -0.7385090869
 C         -4.1376425832        1.0541538631        0.4488174577
 C         -5.0977104133        2.1381095268        0.8933426737
 C         -5.2735679023        3.4117388879        0.0701553819
 C         -4.0442629334        4.3184828544        0.0208877089
 H         -4.2537102134        5.1394543910       -0.6681683662
 H         -3.8895088290        4.7488107688        1.0136775852
 C         -2.7404576469        3.6418184267       -0.3957971035
 H         -1.9530840641        4.4005814162       -0.3883965023
 H         -2.4652296874        2.8884112566        0.3457101444
 C         -2.7507203919        2.9960318131       -1.7802086702
 H         -1.7248532169        2.6953424942       -2.0099839994
 H         -3.0594952648        3.7313011267       -2.5255869954
 C         -3.6394261387        1.7480027275       -1.9232276898
 H         -4.6742542336        2.0175787503       -2.1193911742
 H         -3.2792260549        1.1751740285       -2.7826267723
 H         -5.6069495080        3.1681002163       -0.9341795732
 H         -6.0810281152        3.9772633640        0.5432065664
 H         -6.0741008302        1.6498549812        0.9871075072
 H         -4.7908764533        2.4079282378        1.9090021399
 O         -3.9661835456        0.2109289904        1.5108197330
 C         -3.1610811309       -0.9118599841        1.4326600440
 O         -3.0787811767       -1.5622550379        2.4956170544
 H         -0.2607648161       -0.3516674821        1.0690313202
 C          0.3259288791       -0.9247068979        0.3599358790
 C         -0.2435691092       -2.0407842499       -0.2406373114
 C          0.5288008056       -2.7761532604       -1.1301644865
 C          1.8250132299       -2.3870719852       -1.4216566637
 C          2.3784955903       -1.2628181655       -0.8378981736
 C          1.6197999257       -0.5266010330        0.0627802709
 N          2.1710628702        0.6248214713        0.6559969320
 S          3.6328579532        0.4538156124        1.4677808418
 O          3.7874651114       -0.8806680259        1.9998493978
 O          3.6621470752        1.5359009278        2.4278735646
 C          4.8581098601        0.7568452564        0.2124978029
 C          4.7994049804        1.9505408620       -0.4798081632
 C          5.7504512746        2.2052529083       -1.4548711169
 C          6.7399568230        1.2691720417       -1.7169826983
 C          6.7871170607        0.0771743945       -1.0104448926
 C          5.8377088771       -0.1847671599       -0.0347803672
 H          5.8299942325       -1.0998499689        0.5355196738
 H          7.5573162229       -0.6488342954       -1.2154881582
 H          7.4788013674        1.4703245113       -2.4765439928
 H          5.7167202409        3.1308292223       -2.0066838262
 H          4.0163291446        2.6515712463       -0.2433067981
 H          1.5138316039        1.1355286553        1.2279687733
 H          3.3837043916       -0.9512320121       -1.0703785093
 H          2.4112181377       -2.9658698565       -2.1188887383
 H          0.1143912765       -3.6539055552       -1.5981662133
 C         -1.6544427988       -2.4238187207        0.1389567579
 H         -1.6267624193       -2.8466400379        1.1548633195
 C         -2.2739119626       -3.4429716950       -0.7956393174
 C         -2.0835899738       -4.9092989224       -0.5538004735
 C         -3.4162027346       -4.2742328672       -0.2968511150
 H         -4.2316040934       -4.4893578657       -0.9709121803
 H         -3.7253686178       -4.1247094705        0.7278766748
 H         -1.9874240594       -5.5647269964       -1.4062650089
 H         -1.4912557040       -5.2035291396        0.2995984083
 H         -2.3200335024       -3.0913274693       -1.8198085437
 O         -2.1082128763       -0.5703633955       -2.0066279745
