  62
        -98.94091542
 C          2.4013337005        1.0999333612       -0.2678471256
 C          3.7249112252        1.1486301639        0.2331037612
 C          4.6741949835        0.2001601741       -0.3627965199
 C          4.2468508543       -0.6427200118       -1.3208544835
 C          5.0909647177       -1.7016873547       -1.9677072351
 C          4.9859555435       -3.0340138673       -1.2121797482
 C          5.1851645748       -2.9060121780        0.2981530771
 H          4.3596869424       -2.3263492508        0.7183642198
 H          5.1174505036       -3.9108003266        0.7209633183
 C          6.5178494792       -2.2656360519        0.7112030884
 H          6.9495370462       -2.8511476604        1.5256295787
 H          7.2202790650       -2.3025634038       -0.1221772945
 C          6.4009931559       -0.8248004717        1.2114961912
 H          5.6305784249       -0.7670620917        1.9846310456
 H          7.3512252670       -0.5476735576        1.6755781673
 C          6.0898305738        0.2288976365        0.1411962615
 H          6.7954579869        0.1323330919       -0.6862261823
 H          6.2254298377        1.2142344148        0.5964985274
 H          3.9942962673       -3.4564479392       -1.3910763861
 H          5.7275434280       -3.7223972073       -1.6215851128
 H          4.7380805292       -1.8457320982       -2.9902344005
 H          6.1264041962       -1.3678010284       -1.9941456098
 O          2.9696761371       -0.6564483597       -1.7807894796
 C          2.0122802568        0.2048042158       -1.2641598521
 O          0.8828609471        0.0800119712       -1.7756967073
 O          4.0934884432        1.9469584827        1.1358379134
 C          1.3653469162        2.0406474089        0.3235955930
 C          0.2962793685        1.2168368583        0.9974074587
 C          0.6473833760        0.4582668334        2.1117271143
 C         -0.2817646029       -0.3500280166        2.7364231209
 C         -1.5826629612       -0.4201865493        2.2671199223
 C         -1.9419897035        0.3272961058        1.1547703819
 C         -1.0052388669        1.1443959883        0.5309336372
 H         -1.2952660755        1.7112367013       -0.3396556299
 N         -3.2672681499        0.2936512630        0.6760582289
 S         -4.0456426444       -1.1980349076        0.5353060641
 O         -4.3485605872       -1.6848978751        1.8580251002
 O         -3.2874982464       -2.0950268851       -0.3093778160
 C         -5.5494717860       -0.6918467746       -0.2752363994
 C         -6.5511751399       -0.1256187935        0.4902551876
 C         -7.7132356984        0.2971212700       -0.1348466082
 C         -7.8531551389        0.1482070493       -1.5068293609
 C         -6.8394487559       -0.4227870135       -2.2613960997
 C         -5.6735010948       -0.8463405120       -1.6425585974
 H         -4.8618814424       -1.3012359694       -2.1881407799
 H         -6.9517383304       -0.5394746404       -3.3273684268
 H         -8.7589121350        0.4769188759       -1.9915211913
 H         -8.5046417353        0.7399034984        0.4480357730
 H         -6.4006966387       -0.0386074943        1.5534481558
 H         -3.3522846582        0.7968659111       -0.1977188631
 H         -2.3128905082       -1.0562828956        2.7395635075
 H          0.0054541271       -0.9349829929        3.5976377449
 H          1.6654659916        0.5057497916        2.4742971302
 H          1.8979401025        2.6088962822        1.0992229029
 C          0.8462943172        3.0077384788       -0.7182459667
 C          0.1863856650        4.2822808401       -0.2865121094
 C          1.5493087896        4.3170937605       -0.9081294269
 H          1.6510177828        4.7056820914       -1.9103231497
 H          2.3986086498        4.5220118291       -0.2730680525
 H         -0.6485720638        4.6525635357       -0.8616770499
 H          0.1076556543        4.4665699690        0.7740926338
 H          0.4734525471        2.5117146481       -1.6070982185
