  62
        -98.94582162
 C         -2.1372141429       -1.4850197591        0.0026328030
 C         -1.8451496105       -0.3395668763       -0.7768227849
 C         -2.9171638081        0.6608226721       -0.8552830850
 C         -4.0977932194        0.4283062407       -0.2537242631
 C         -5.2951660175        1.3395016536       -0.2736917614
 C         -5.2579906400        2.4435869523        0.7920025223
 C         -4.2493731520        3.5637860345        0.5340850307
 H         -4.3952859745        3.9574661379       -0.4722507362
 H         -4.4798053909        4.3686258507        1.2349665982
 C         -2.7830593848        3.1494413943        0.7216715281
 H         -2.7381171584        2.2191884965        1.2926113366
 H         -2.2624165733        3.9085771685        1.3093646416
 C         -2.0006898158        2.9685004266       -0.5792462972
 H         -1.9145147114        3.9298204142       -1.0903717538
 H         -0.9956842965        2.6231029486       -0.3247078668
 C         -2.6171617557        1.9537425940       -1.5507463764
 H         -3.5186704728        2.3634841104       -2.0054805105
 H         -1.8904944595        1.7445131459       -2.3392864606
 H         -5.0530929208        1.9851580966        1.7623398905
 H         -6.2563235939        2.8849799468        0.8381747456
 H         -5.3976120929        1.7889578923       -1.2618195435
 H         -6.1679761667        0.7102162279       -0.0862207475
 O         -4.3522902527       -0.7089252798        0.4481773868
 C         -3.3718683010       -1.6725272909        0.6231186365
 O         -3.7171612799       -2.6359464192        1.3375013591
 H          1.5023496557       -2.5224520278       -0.8024872226
 C          1.3982422246       -1.9781190937        0.1226709878
 C          0.1687502888       -1.9150981085        0.7562062232
 C          0.0706282429       -1.1996356493        1.9473605140
 C          1.1724644054       -0.5631018943        2.4845035245
 C          2.3977357122       -0.6180867476        1.8422060351
 C          2.5047994575       -1.3256996691        0.6533217574
 N          3.7379425600       -1.3748357298       -0.0155040394
 S          4.6630526376        0.0153484476       -0.0904685518
 O          5.4636905951       -0.1337361284       -1.2861470122
 O          5.4026014387        0.1693605390        1.1385832648
 C          3.5203012588        1.3741460395       -0.2752505791
 C          3.6055728550        2.4503088965        0.5848768747
 C          2.7273711637        3.5095997627        0.4233191875
 C          1.7814868564        3.4732311909       -0.5893933437
 C          1.7076399261        2.3843845324       -1.4444168175
 C          2.5851569152        1.3243470202       -1.2895179644
 H          2.5380895242        0.4677478995       -1.9417710915
 H          0.9622839053        2.3440839947       -2.2221023582
 H          1.0957058940        4.2966876843       -0.7133030160
 H          2.7811822675        4.3573535802        1.0873516587
 H          4.3532522497        2.4349185449        1.3614571215
 H          3.7054718447       -1.8437064546       -0.9087106652
 H          3.2682493869       -0.1281145406        2.2472569483
 H          1.0787637251       -0.0137393835        3.4090275499
 H         -0.8896903546       -1.1452082474        2.4427294258
 C         -1.0768534412       -2.5551815625        0.1941808079
 H         -1.4754091336       -3.2529463364        0.9441977387
 C         -0.8556773958       -3.3074658582       -1.1012926694
 C         -0.3105788516       -4.7032166048       -1.0778992599
 C         -1.7483342515       -4.4652017926       -1.4274555346
 H         -2.0608283582       -4.6030903630       -2.4517785941
 H         -2.5051628137       -4.7274448707       -0.7025343084
 H         -0.0880187016       -5.1365488656       -0.1145439875
 H          0.3622563582       -5.0101564415       -1.8646766866
 H         -0.5679215988       -2.6572973644       -1.9196781682
 O         -0.7546424373       -0.1598717741       -1.3765559975
