  62
        -98.93936216
 C         -1.1931851702       -1.6727857197       -0.0882028793
 C         -0.0322458500       -1.6525863205       -0.8927442489
 C          1.2590345498       -1.8249964902       -0.2061252084
 C          1.2674490794       -1.9628048093        1.1320493017
 C          2.4572747391       -2.1058200888        2.0460960221
 C          3.5929685493       -1.0980904692        1.8066877717
 C          4.8676214594       -1.7400590598        1.2575050426
 H          5.7153073894       -1.0954922997        1.5001499624
 H          5.0244199991       -2.6911311194        1.7704485533
 C          4.8755935198       -1.9696768008       -0.2527104272
 H          4.9727325601       -1.0090391712       -0.7618896079
 H          5.7647451298       -2.5578616612       -0.4910092266
 C          3.6474841498       -2.6870462410       -0.8174852871
 H          3.3359524695       -3.4949051005       -0.1572933766
 H          3.9394884300       -3.1446387618       -1.7649927467
 C          2.4646682701       -1.7516305011       -1.1041206381
 H          2.8078211203       -0.7125992711       -1.1294235888
 H          2.0704429303       -1.9567281317       -2.1046311481
 H          3.8300495791       -0.6261049985        2.7619474815
 H          3.2421148096       -0.3109450096        1.1399084611
 H          2.8406782489       -3.1264416489        1.9777156030
 H          2.0578660788       -1.9845477380        3.0554005519
 O          0.1211798891       -2.0031335585        1.8680964613
 C         -1.1232973207       -1.8088399887        1.2975693908
 O         -2.0677223909       -1.7984234280        2.1112766505
 O         -0.0698516896       -1.4774117814       -2.1422780191
 C         -2.5282388600       -1.3516176300       -0.7364868999
 C         -2.9594966399        0.0218398904       -0.2783271310
 C         -4.2589478599        0.3484170609        0.0855928684
 C         -4.5596591199        1.6261170913        0.5281271974
 C         -3.5769389797        2.5932671912        0.6349865270
 C         -2.2754689997        2.2779106407        0.2614250576
 C         -1.9870145097        1.0122592503       -0.2165714814
 H         -0.9729353097        0.7757283499       -0.5028041210
 N         -1.2335833895        3.2170762606        0.3463559572
 S          0.2748827902        2.7246173907        0.8869406480
 O          0.2005053398        1.5251220413        1.6883456489
 O          0.8305829502        3.8889949111        1.5477153974
 C          1.2491686806        2.4082732895       -0.5721303615
 C          2.5826530605        2.1198576995       -0.3528274709
 C          3.4059835108        1.8625554686       -1.4367997304
 C          2.8824923512        1.8954998477       -2.7207354406
 C          1.5450498613        2.1927520678       -2.9245728512
 C          0.7168973410        2.4571868287       -1.8434716017
 H         -0.3260285889        2.6914186088       -1.9802056921
 H          1.1386757516        2.2163132172       -3.9227620014
 H          3.5203691914        1.6862939870       -3.5648029903
 H          4.4492988007        1.6395894685       -1.2766814800
 H          2.9448099502        2.1053633601        0.6634796693
 H         -1.4902663195        4.1046464909        0.7535276065
 H         -3.8089990697        3.5792720615        1.0078445562
 H         -5.5726265499        1.8665796316        0.8133546469
 H         -5.0337154300       -0.3990484290        0.0359120487
 H         -2.3220226396       -1.3004278608       -1.8164739499
 C         -3.5585449402       -2.4299419696       -0.4854458495
 C         -4.6610709900       -2.6624886701       -1.4743768896
 C         -3.5484858702       -3.6573563202       -1.3452907086
 H         -3.7563563805       -4.6106103099       -0.8832350280
 H         -2.8105955899       -3.7056463709       -2.1326400283
 H         -5.6369704701       -2.9364346697       -1.1027776097
 H         -4.6820726296       -2.0396820808       -2.3558187801
 H         -3.7771610206       -2.5594386388        0.5681965906
