  62
        -98.94440102
 C         -1.9345732745       -0.8411885587        0.0783142954
 C         -2.4080960719        0.4890340583        0.1777853465
 C         -3.8223041767        0.6361526638        0.5538823893
 C         -4.5601623198       -0.4630943683        0.7941616188
 C         -6.0224655099       -0.4583075295        1.1318739098
 C         -6.8853402431       -0.5634618099       -0.1333706043
 C         -6.4921149715        0.4228683711       -1.2330690347
 H         -5.4957132723        0.1681306061       -1.6014465513
 H         -7.1876749676        0.2792640184       -2.0627791176
 C         -6.5097052419        1.8956897234       -0.8007255501
 H         -7.0014756131        2.4833059412       -1.5788589090
 H         -7.0986742911        2.0077355471        0.1102834034
 C         -5.1251704384        2.5106150373       -0.5871230534
 H         -5.2438084614        3.5940779744       -0.5004211937
 H         -4.4999548601        2.3202567710       -1.4632890307
 C         -4.3671813919        2.0327868910        0.6579350303
 H         -5.0052861713        2.1340116793        1.5382480008
 H         -3.4969281831        2.6832803492        0.7872863859
 H         -7.9282171685       -0.4027963950        0.1458409022
 H         -6.7922346383       -1.5759549509       -0.5328005874
 H         -6.2299355963       -1.3158720729        1.7740876229
 H         -6.2619824135        0.4549978958        1.6729331777
 O         -4.0621580549       -1.7232099650        0.7105671682
 C         -2.7448491679       -1.9448523264        0.3447242994
 O         -2.4171528580       -3.1478827234        0.3009822072
 O         -1.6915660602        1.5019784275       -0.0343406898
 C         -0.4947218680       -1.1063772740       -0.3265230360
 C          0.4423372477       -0.4117662041        0.6309385800
 C          0.2977160625       -0.6558249555        1.9951338722
 C          1.1126557066       -0.0284561691        2.9160063268
 C          2.0993877435        0.8471234856        2.4962837415
 C          2.2577531010        1.0926929693        1.1384487401
 C          1.4365720989        0.4582781012        0.2142240520
 H          1.5721080041        0.6837854097       -0.8296217356
 N          3.2389175339        1.9911224813        0.6899558809
 S          4.2070224629        1.6204700680       -0.6199355882
 O          5.2992178624        2.5649236201       -0.5391164011
 O          3.4387237714        1.6365453817       -1.8376371617
 C          4.8022047674       -0.0252567000       -0.2776826032
 C          5.8543549538       -0.1678121546        0.6062638540
 C          6.2879367330       -1.4419518377        0.9334060474
 C          5.6592257749       -2.5474200363        0.3801934348
 C          4.6052474147       -2.3872361362       -0.5057309940
 C          4.1691907008       -1.1146357514       -0.8401724443
 H          3.3565889986       -0.9510423436       -1.5283314610
 H          4.1188646255       -3.2478450587       -0.9367802169
 H          5.9937019989       -3.5399163457        0.6381458000
 H          7.1108800217       -1.5700745328        1.6179913564
 H          6.3226569288        0.7174950831        1.0049451614
 H          3.7814216526        2.4169026677        1.4270791648
 H          2.7316117027        1.3465092607        3.2146462634
 H          0.9813880858       -0.2218326711        3.9699949614
 H         -0.4761301499       -1.3375374218        2.3217926346
 H         -0.3478396327       -2.1914584616       -0.2235162241
 C         -0.2834797288       -0.7232194456       -1.7759674107
 C          0.7285734984       -1.4499218519       -2.6077022427
 C         -0.7347705668       -1.6658232714       -2.8493261407
 H         -1.1790697567       -1.2547571774       -3.7434515899
 H         -1.1726849134       -2.6020495823       -2.5342053243
 H          1.2956395594       -0.8892741103       -3.3364646752
 H          1.2777117790       -2.2505886410       -2.1351944182
 H         -0.4263633382        0.3364761401       -1.9560829123
