  62
        -98.94088116
 C          2.5830172151        0.2220219403        0.6034347973
 C          2.4471016595       -0.4018553400       -0.6622720944
 C          2.2453369862       -1.8561483046       -0.6410051584
 C          2.1501533327       -2.5052176383        0.5321145461
 C          1.9155025632       -3.9799637779        0.7135236418
 C          0.4380686544       -4.3831082751        0.6062612451
 C         -0.1381028058       -4.3869093290       -0.8106354705
 H          0.5259001553       -4.9446616121       -1.4723474691
 H         -1.0852104473       -4.9282786563       -0.7653905442
 C         -0.4013920432       -2.9919415165       -1.3949928118
 H         -1.3776406699       -2.9873959572       -1.8865931429
 H         -0.4529842495       -2.2570996496       -0.5875083802
 C          0.6205943644       -2.5304219150       -2.4344703864
 H          0.5420960672       -3.1561902170       -3.3271192016
 H          0.3779826199       -1.5028609580       -2.7173852717
 C          2.0769567228       -2.5557269237       -1.9562325720
 H          2.6846445698       -2.0239620048       -2.6930441642
 H          2.4322595854       -3.5836679279       -1.8851246802
 H          0.3455899441       -5.3915213911        1.0170276253
 H         -0.1529099318       -3.7103396978        1.2331856235
 H          2.5031458250       -4.5401900271       -0.0146365304
 H          2.2706452493       -4.2307791701        1.7154637346
 O          2.2708161006       -1.8702951943        1.7291368039
 C          2.4543820834       -0.4990496314        1.7919331426
 O          2.4932148865       -0.0432912655        2.9550649037
 O          2.4895431893        0.2090106750       -1.7609569075
 C          2.6658567170        1.7347520885        0.7346722790
 C          1.5693648842        2.3423080528       -0.1085249959
 C          1.7502913168        3.3747632723       -1.0170098610
 C          0.6771412377        3.8439013308       -1.7571108492
 C         -0.5822555072        3.2919531531       -1.6187268517
 C         -0.7712228625        2.2497963189       -0.7149754022
 C          0.2949474440        1.8097023569        0.0472132218
 H          0.1410991047        1.0141243962        0.7623888330
 N         -2.0193388692        1.6145040575       -0.6036571419
 S         -2.3997483274        0.6789886417        0.7404281171
 O         -2.3230757672        1.4777241506        1.9459639321
 O         -1.6176323286       -0.5309408088        0.7224543938
 C         -4.0997478216        0.2975293701        0.3657794336
 C         -4.3645942178       -0.7581475424       -0.4857577420
 C         -5.6813688184       -1.0447853881       -0.8085402491
 C         -6.7056188280       -0.2743264099       -0.2780775361
 C         -6.4247712214        0.7802439024        0.5775722258
 C         -5.1096049482        1.0724490996        0.9038898918
 H         -4.8436815481        1.8751378960        1.5727984537
 H         -7.2233747038        1.3744911230        0.9913675379
 H         -7.7296257635       -0.4995658954       -0.5307994754
 H         -5.9033692972       -1.8662339256       -1.4704134226
 H         -3.5344859135       -1.3320823141       -0.8643403738
 H         -2.7958880739        2.1850907357       -0.9063045604
 H         -1.4096188955        3.6474772735       -2.2133224728
 H          0.8283827477        4.6472200381       -2.4623126477
 H          2.7305533318        3.7980969357       -1.1626436472
 H          2.4178762542        1.9365390408        1.7913879892
 C          4.0405969106        2.3373342534        0.4920176818
 C          5.2819422844        1.5080946125        0.6299445271
 C          4.8621483332        2.0100644635       -0.7171640029
 H          5.4418053245        2.8019478675       -1.1688998703
 H          4.4466042261        1.3094644295       -1.4230788325
 H          6.1449786181        1.9519512678        1.1034934360
 H          5.1562824696        0.4566955700        0.8464068557
 H          4.1048248974        3.3561835324        0.8624363022
