  62
        -98.94518872
 C         -1.7595522800       -1.3400892701       -0.2423963705
 C         -2.8846150201       -0.7370127003        0.3604508495
 C         -3.3013131500        0.5651194498       -0.1861338402
 C         -2.6043399299        1.0977270101       -1.2055342700
 C         -2.7977495399        2.4486985703       -1.8360733997
 C         -1.8816450500        3.4834535801       -1.1583480493
 C         -2.4942005501        4.1822984198        0.0539816908
 H         -1.7114256402        4.8023455797        0.4974330210
 H         -3.2976616301        4.8456274499       -0.2751324091
 C         -3.0380297002        3.2404409695        1.1311423205
 H         -3.0827579903        3.7946862093        2.0711513506
 H         -2.3324241602        2.4192531995        1.2766837304
 C         -4.4370743302        2.6944913696        0.8079765302
 H         -5.0911834503        2.8497023194        1.6686127202
 H         -4.8617965301        3.2735945698       -0.0120872597
 C         -4.4993753901        1.1974722797        0.4687262299
 H         -4.6447285502        0.6232847094        1.3893654797
 H         -5.3777935700        1.0114806298       -0.1585650803
 H         -0.9629928500        2.9748652400       -0.8514072994
 H         -1.6080695099        4.2471916503       -1.8896605191
 H         -3.8392080999        2.7539336202       -1.7906846097
 H         -2.5022253098        2.3522142805       -2.8828243197
 O         -1.5465986299        0.4665692403       -1.7812577900
 C         -1.0767507699       -0.7383711298       -1.2982837003
 O         -0.0700939498       -1.1765120597       -1.8896941703
 O         -3.5049269202       -1.2570328205        1.3298658994
 C         -1.2128019200       -2.6362214702        0.3262789792
 C          0.2269942499       -2.4430967503        0.7372042994
 C          1.2093800800       -3.4095834703        0.5591961693
 C          2.5198927999       -3.1568034403        0.9277805095
 C          2.8847001398       -1.9305148804        1.4529309298
 C          1.9070096598       -0.9617557605        1.6443623100
 C          0.5894068498       -1.2356731505        1.3204724898
 H         -0.1555674102       -0.4703620405        1.4830283799
 N          2.2179648297        0.3251302794        2.1368163503
 S          2.0174698398        1.5810819696        1.0385332006
 O          2.4633037097        2.7681696195        1.7372515609
 O          0.6637688399        1.5995601297        0.5519224405
 C          3.1768815400        1.1906278100       -0.2597921294
 C          2.8300755001        0.2754192702       -1.2331598496
 C          3.7833020202       -0.0843021395       -2.1748209996
 C          5.0537100202        0.4676724705       -2.1265779194
 C          5.3842142601        1.3869509502       -1.1417769791
 C          4.4402368199        1.7480269300       -0.1949366991
 H          4.6490033399        2.4596134998        0.5877780911
 H          6.3716668800        1.8182794802       -1.1069787189
 H          5.7889383902        0.1803017707       -2.8616512594
 H          3.5178487803       -0.7989133994       -2.9373619598
 H          1.8339710001       -0.1400162198       -1.2597177598
 H          3.1444519397        0.3913834693        2.5373860704
 H          3.9123404498       -1.7206808005        1.7092166700
 H          3.2711620600       -3.9178095603        0.7824820794
 H          0.9494185300       -4.3604181302        0.1232557490
 H         -1.8103748201       -2.8394511105        1.2278977591
 C         -1.4063116299       -3.7744640200       -0.6547164510
 C         -1.6366364199       -5.1717111101       -0.1632015614
 C         -2.7629582599       -4.3985571300       -0.7782780113
 H         -3.1126644598       -4.6826478198       -1.7593924114
 H         -3.5406090100       -4.0200763802       -0.1309104913
 H         -1.2150021399       -5.9917453400       -0.7247392216
 H         -1.6575066200       -5.3300117904        0.9044715985
 H         -0.8336721198       -3.6370350298       -1.5652000510
