  62
        -98.93800717
 C          0.8275461261        1.5429156358        0.1963595027
 C          1.8585402571        1.1629641601        1.0887096965
 C          2.9597032836        0.3475817765        0.5386068392
 C          2.8907229223       -0.0439169693       -0.7469660130
 C          3.9264883610       -0.7946560794       -1.5448044381
 C          4.0271291906       -2.2970683309       -1.2192098861
 C          3.7772883539       -2.6636429746        0.2422178246
 H          2.8467668169       -2.2028507521        0.5804292184
 H          3.6438552348       -3.7470755806        0.3027361297
 C          4.9080768793       -2.2782750258        1.1919724344
 H          5.8087168333       -2.8327586211        0.9174981239
 H          4.6197039933       -2.5900366903        2.1992553028
 C          5.2520833587       -0.7903812310        1.2268364940
 H          5.7408209750       -0.4868155360        0.3052097123
 H          5.9782334667       -0.6413021249        2.0313697297
 C          4.0721457566        0.1268257751        1.5344972094
 H          3.5839060039       -0.2160397428        2.4544991657
 H          4.4604231228        1.1252080926        1.7723323408
 H          5.0160607876       -2.6503487485       -1.5152766612
 H          3.2942655233       -2.8286584698       -1.8297977353
 H          4.8894108437       -0.3065380828       -1.4119737591
 H          3.6457223092       -0.6835897663       -2.5942337556
 O          1.8051988030        0.2243777847       -1.5260229373
 C          0.7553457452        1.0214344824       -1.0953067582
 O         -0.1445907987        1.1740117673       -1.9394550680
 O          1.8820772615        1.5145884186        2.2998641579
 C         -0.2096886822        2.5282802685        0.6993043597
 C         -1.6056376574        2.1318225933        0.2939585694
 C         -2.4004128174        2.8924330722       -0.5546814340
 C         -3.6875267480        2.4880881551       -0.8591537675
 C         -4.2072992680        1.3213850140       -0.3304243848
 C         -3.4187184875        0.5501989936        0.5152915283
 C         -2.1306770601        0.9588273439        0.8223241210
 H         -1.5291128871        0.3546493890        1.4867853416
 N         -3.9185351651       -0.6369563263        1.0762715705
 S         -2.9075539316       -1.9554694638        1.2123011302
 O         -3.8043873360       -3.0916059950        1.2685604772
 O         -2.0315696875       -1.8018684088        2.3475322155
 C         -1.9606712616       -2.0184235154       -0.2965657575
 C         -2.6174546162       -1.8986990552       -1.5049505235
 C         -1.8859265816       -1.9850603274       -2.6772601201
 C         -0.5198301977       -2.2092156435       -2.6235068042
 C          0.1218551091       -2.3398891530       -1.4034062821
 C         -0.6006107157       -2.2322622816       -0.2270855143
 H         -0.1329752611       -2.3032572971        0.7432843308
 H          1.1841830342       -2.5127968240       -1.3602697639
 H          0.0509691220       -2.2752844462       -3.5361274054
 H         -2.3814083250       -1.8753197897       -3.6283073220
 H         -3.6832411073       -1.7390309885       -1.5210036871
 H         -4.8390342358       -0.9029139566        0.7580284236
 H         -5.2126561942        1.0073418580       -0.5662215502
 H         -4.2928184132        3.0873052258       -1.5220776386
 H         -2.0052143809        3.7933767677       -0.9933386843
 H         -0.1490366543        2.4544932267        1.7984345772
 C          0.1178618370        3.9727678823        0.3412385008
 C          1.5355600193        4.4360647901        0.1961219770
 C          0.6452623368        4.3627357279       -1.0060841104
 H          0.3009846124        5.2876834944       -1.4449517839
 H          0.8137250572        3.5743512832       -1.7235076161
 H          1.7981991407        5.4080073249        0.5860991713
 H          2.3186297246        3.6992787946        0.3004795911
 H         -0.5649024642        4.6694758121        0.8179723249
