  62
        -98.93880192
 C         -1.8528291627       -0.6982702548        0.2846162499
 C         -2.1869097847        0.5848577010       -0.2217072735
 C         -3.5657394709        0.7674031007       -0.6911417899
 C         -4.4168810973       -0.2729036203       -0.6391538232
 C         -5.8636093413       -0.2196625516       -1.0349101435
 C         -6.7550048586        0.1386657086        0.1623357455
 C         -6.2730839898        1.3584059441        0.9477501807
 H         -6.9943000531        1.5351180687        1.7487155846
 H         -5.3178217944        1.1218863308        1.4220127291
 C         -6.1186328219        2.6338681559        0.1075811866
 H         -6.6739420235        2.5322499923       -0.8255210476
 H         -6.5575994347        3.4697790412        0.6563713675
 C         -4.6704270966        3.0161702987       -0.2038583664
 H         -4.0874496740        3.0266063151        0.7204564177
 H         -4.6663322913        4.0331779080       -0.6048798154
 C         -3.9475478500        2.1217450643       -1.2189521559
 H         -4.5540400718        2.0257285816       -2.1219194926
 H         -3.0077758115        2.6136664257       -1.4859917011
 H         -7.7684619322        0.3155240337       -0.2025491869
 H         -6.7827788814       -0.7167238951        0.8413776193
 H         -5.9903134651        0.5144849913       -1.8282584833
 H         -6.1537156514       -1.2021205857       -1.4112182422
 O         -4.0590788396       -1.4935261585       -0.1708083542
 C         -2.7756021600       -1.7453166263        0.3061883360
 O         -2.6151463694       -2.9138896309        0.7004043456
 H          2.0217417221        0.0406408665        0.2020986246
 C          1.7468912791       -0.7901512179       -0.4285199813
 C          0.4960251239       -1.3721436476       -0.2865689616
 C          0.1455906781       -2.4203727620       -1.1307739753
 C          1.0362318829       -2.8741069660       -2.0868944089
 C          2.2959040888       -2.3126863885       -2.2022753308
 C          2.6561464293       -1.2652145112       -1.3630378024
 N          3.9214842480       -0.6704867313       -1.4484600271
 S          4.7088909716       -0.1893643461       -0.0497327495
 O          6.1104076715       -0.1783344383       -0.4086973290
 O          4.3429469185       -1.0193347160        1.0732557331
 C          4.1630179057        1.4847571606        0.2065278620
 C          4.3423540202        2.3920993769       -0.8187410379
 C          3.9290304649        3.7012214613       -0.6334392640
 C          3.3472717322        4.0789385349        0.5674434933
 C          3.1780497816        3.1570959969        1.5887084038
 C          3.5904654962        1.8460983590        1.4097197217
 H          3.4723053794        1.0971357243        2.1776027553
 H          2.7236655915        3.4518284956        2.5211241296
 H          3.0221029570        5.0975236717        0.7091316000
 H          4.0579885650        4.4220669349       -1.4247217931
 H          4.8008056523        2.0610545890       -1.7356177193
 H          4.5512381118       -1.0969932739       -2.1121055133
 H          2.9948502489       -2.6814535486       -2.9375945278
 H          0.7521148869       -3.6862589547       -2.7392638147
 H         -0.8242510960       -2.8823609093       -1.0230426417
 C         -0.4324950600       -0.8703992760        0.7893212501
 H         -0.1036711791        0.1494241841        1.0473944729
 C         -0.3356149305       -1.7049101209        2.0592662234
 C          0.1849795675       -3.1068092163        2.0917475888
 C          0.9993063619       -1.9960239982        2.6804384975
 H          1.0889932550       -1.9371504949        3.7550218463
 H          1.8899837372       -1.6918576919        2.1487559035
 H         -0.3033861446       -3.8075897325        2.7514806695
 H          0.5184619124       -3.5475399665        1.1655046135
 H         -1.1485070071       -1.4845301762        2.7447185951
 O         -1.3640587372        1.5385497567       -0.2698738705
