  62
        -98.93567730
 C         -1.9567093611       -0.5269906228        0.1805227529
 C         -2.6683228850        0.6968222884        0.2853805596
 C         -4.0528123012        0.7035732616       -0.2077419658
 C         -4.5624865879       -0.4253962449       -0.7322268776
 C         -5.9752493628       -0.6102314183       -1.2083234784
 C         -6.9192276106       -0.7907541095       -0.0025061096
 C         -7.9330669661        0.3390637958        0.1784518757
 H         -8.3887833403        0.2152675669        1.1631742496
 H         -8.7238281605        0.2293596966       -0.5666900503
 C         -7.3751508654        1.7608643506        0.0627838575
 H         -8.1336286864        2.4341320764        0.4679182045
 H         -7.2558519303        2.0244385345       -0.9891811760
 C         -6.0480526204        2.0218322472        0.7871586980
 H         -5.9083578240        1.3120742692        1.6028714529
 H         -6.0958378922        3.0159760358        1.2364791125
 C         -4.8059431743        2.0023474690       -0.1233994591
 H         -4.0781549964        2.7222392177        0.2629616832
 H         -5.0855135062        2.3279703462       -1.1293964032
 H         -6.3096007427       -0.8820497899        0.8988752240
 H         -7.4675616076       -1.7281739771       -0.1066590565
 H         -5.9908834215       -1.4990764132       -1.8393029022
 H         -6.2764934442        0.2472700668       -1.8059222389
 O         -3.8516666555       -1.5763985870       -0.8220926100
 C         -2.5392030303       -1.6644284712       -0.3789509073
 O         -2.0363541929       -2.7916748053       -0.5501415488
 O         -2.1634930351        1.7424107657        0.7782342507
 C         -0.5331531879       -0.5274967772        0.7085657569
 C          0.4869658688       -0.3236493216       -0.3865115186
 C          0.5380705483       -1.1532658122       -1.5023442791
 C          1.4927604073       -0.9514675644       -2.4819234170
 C          2.4301886228        0.0593789087       -2.3563240094
 C          2.3949747313        0.8858087678       -1.2406619045
 C          1.4185066717        0.6978834256       -0.2715461779
 H          1.3994297659        1.3579541615        0.5823310636
 N          3.3477096053        1.9094234031       -1.0627169446
 S          4.3200172875        1.8232338682        0.2994172441
 O          3.5151896979        1.9557271571        1.4854847257
 O          5.3433431442        2.8237248802        0.0971522568
 C          5.0390370934        0.1922791160        0.2137348499
 C          6.2801693490        0.0417385406       -0.3736760555
 C          6.8064767919       -1.2322023657       -0.5135386259
 C          6.0796143115       -2.3299897955       -0.0782389739
 C          4.8335177213       -2.1622565568        0.5059260053
 C          4.3043040930       -0.8901292384        0.6562738181
 H          3.3392129575       -0.7272784147        1.1074298647
 H          4.2658434393       -3.0152450066        0.8415063128
 H          6.4857376129       -3.3225178482       -0.1935510959
 H          7.7767270897       -1.3654068120       -0.9642574395
 H          6.8101047758        0.9234795949       -0.6961576942
 H          3.9255950058        2.0705288169       -1.8762752546
 H          3.1807840470        0.2100707891       -3.1175766339
 H          1.5147009695       -1.5961399738       -3.3473222597
 H         -0.1797182194       -1.9535226653       -1.5945127513
 H         -0.4757644940        0.3443746221        1.3750078445
 C         -0.1788146532       -1.7637266500        1.5134505749
 C          0.8984522614       -1.6673375395        2.5504735762
 C         -0.5336637675       -1.8183723346        2.9673077360
 H         -0.8561733287       -2.7609995628        3.3829836423
 H         -1.0334819009       -0.9600380583        3.3926792739
 H          1.5620679258       -2.5076151268        2.6861018509
 H          1.3675191755       -0.7052921783        2.7015834940
 H         -0.2573200189       -2.6821519782        0.9465424003
