  62
        -98.94941171
 C         -1.3628889429       -1.5929981654        0.2742163596
 C         -1.6210138795       -0.6040879743        1.2535183816
 C         -2.7861201649        0.2554238201        1.0157296050
 C         -3.5300899543        0.0609914239       -0.0880437787
 C         -4.7293615231        0.8784177199       -0.4697242662
 C         -4.3465718493        2.0485490050       -1.3853905243
 C         -3.1764578735        2.8881705911       -0.8714327278
 H         -2.2556809187        2.3001417041       -0.9050382781
 H         -3.0410564193        3.7175213872       -1.5699383062
 C         -3.3622641708        3.4447024291        0.5469026648
 H         -3.0354268986        4.4867197572        0.5546022167
 H         -4.4190587764        3.4317727544        0.8183960347
 C         -2.5471146726        2.7169464743        1.6177906378
 H         -2.5318916837        3.3388301589        2.5172908709
 H         -1.5154581119        2.6154010960        1.2687775187
 C         -3.0689453592        1.3320356670        2.0244114914
 H         -2.5474774596        1.0331607019        2.9386005929
 H         -4.1376549700        1.3904802544        2.2421756796
 H         -4.0740710361        1.6484655353       -2.3648676567
 H         -5.2236803752        2.6867797562       -1.5108963524
 H         -5.4295879606        0.2305438568       -1.0003777228
 H         -5.2084057619        1.2523465984        0.4331601696
 O         -3.2516996751       -0.8961894298       -1.0093786755
 C         -2.1391853718       -1.7158978405       -0.8775859450
 O         -1.9651999291       -2.4986850493       -1.8311334736
 H          0.3992331959       -0.0091173666       -0.4443929614
 C          1.0522562374       -0.7307356777       -0.9078617457
 C          0.9047111748       -2.0774293835       -0.6078381764
 C          1.7375424592       -2.9895938291       -1.2436616912
 C          2.6788931069       -2.5525089581       -2.1604583058
 C          2.8283516016       -1.2072414736       -2.4464827482
 C          2.0019941850       -0.2864852181       -1.8119853685
 N          2.1020134050        1.0887125297       -2.0665187359
 S          1.8123396881        2.1880699941       -0.8386497867
 O          0.4049787772        2.2548619450       -0.5392152439
 O          2.4127408758        3.4149264769       -1.3188805339
 C          2.7476147240        1.5732916043        0.5504511288
 C          2.1267666971        0.9833884220        1.6316781488
 C          2.9118218473        0.4783608641        2.6575384961
 C          4.2923037990        0.5707785300        2.5877093193
 C          4.9012010817        1.1744209079        1.4973456819
 C          4.1237514519        1.6777553944        0.4684836025
 H          4.5569004995        2.1658879160       -0.3895208766
 H          5.9752769568        1.2513322231        1.4465601710
 H          4.8955565146        0.1726112751        3.3882767127
 H          2.4284761270        0.0116245489        3.5010668410
 H          1.0508194334        0.9126441752        1.6729143571
 H          2.8780571521        1.3652289798       -2.6488847276
 H          3.5659478267       -0.8718824092       -3.1591646886
 H          3.3130391097       -3.2719345804       -2.6557999573
 H          1.6444397016       -4.0413881004       -1.0281896727
 C         -0.1275415677       -2.4610483936        0.4264018061
 H          0.2866098124       -2.2020747145        1.4135869241
 C         -0.4763951945       -3.9337472710        0.4188545179
 C          0.3426879404       -4.9074042787        1.2113000660
 C         -1.0395999050       -4.5487815798        1.6641323691
 H         -1.8252171182       -5.2827578621        1.5663719181
 H         -1.1463592413       -3.9093959386        2.5284139394
 H          0.5061192868       -5.8939383701        0.8044467410
 H          1.1757976820       -4.5178181262        1.7765439334
 H         -0.8877906727       -4.2597575380       -0.5292761189
 O         -0.9038081410       -0.4465178450        2.2794176229
