  62
        -98.93651827
 C          1.7907824211        1.6146304045        0.2119864565
 C          1.4924652253        0.2696392669       -0.1128276747
 C          2.5340090868       -0.7362244673        0.1976849028
 C          3.6834404766       -0.3364581580        0.7700316190
 C          4.8866721017       -1.1623787813        1.1428178697
 C          5.7345725509       -1.5668125232       -0.0723961096
 C          4.9374056181       -2.0984356827       -1.2600124158
 H          4.2361773239       -1.3310354325       -1.5922094637
 H          5.6400139087       -2.2718418887       -2.0794662616
 C          4.1835200383       -3.4016819993       -1.0052498152
 H          4.8907717063       -4.1662084601       -0.6763714063
 H          3.7678037837       -3.7257253194       -1.9627438420
 C          3.0367447806       -3.3253890177        0.0065563668
 H          3.4075356295       -3.3524095579        1.0276852218
 H          2.4284262768       -4.2245495924       -0.1261627308
 C          2.1050593495       -2.1328821435       -0.1812653216
 H          1.7918809419       -2.0830309029       -1.2302611169
 H          1.1830712307       -2.3105854939        0.3839973547
 H          6.2888049740       -0.6866143057       -0.4080593479
 H          6.4590556917       -2.3173807994        0.2487455533
 H          5.4981165786       -0.5413534543        1.8015204749
 H          4.5801276291       -2.0385631006        1.7063918546
 O          3.9206009985        0.9720151130        1.0776238509
 C          2.9948661121        1.9636193600        0.8294647361
 O          3.3493945336        3.1010372427        1.2007100733
 O          0.4182469973       -0.1075276297       -0.6474854874
 C          0.8016604784        2.7470418494       -0.0140713518
 C         -0.5572767542        2.3279556418        0.4856118752
 C         -0.7922976579        2.2802371486        1.8559604151
 C         -2.0082576760        1.8442893302        2.3488037509
 C         -3.0088962189        1.4337992498        1.4857354334
 C         -2.7767905609        1.4633664635        0.1170920127
 C         -1.5636920731        1.9240004434       -0.3761742102
 H         -1.3894617838        1.9277578516       -1.4405917578
 N         -3.7759632844        1.0292543743       -0.7727747408
 S         -4.5582405758       -0.4163412983       -0.4620612391
 O         -5.1544455057       -0.7933765715       -1.7245368895
 O         -5.4746222060       -0.2329238003        0.6368114684
 C         -3.2965275561       -1.5914692825       -0.0084028780
 C         -2.5057181781       -2.1188462756       -1.0090837240
 C         -1.5228908499       -3.0342408150       -0.6745005980
 C         -1.3430871574       -3.3985702037        0.6507846097
 C         -2.1393520632       -2.8534236595        1.6454827006
 C         -3.1279757249       -1.9407529424        1.3155366330
 H         -3.7762404437       -1.5054203879        2.0581851171
 H         -1.9935094254       -3.1365600626        2.6758102171
 H         -0.5795523561       -4.1159339471        0.9101537408
 H         -0.8973657359       -3.4550043135       -1.4450719034
 H         -2.6789522667       -1.8195141538       -2.0300735124
 H         -3.4871601855        1.0640715023       -1.7398475503
 H         -3.9617975568        1.0876386012        1.8515243999
 H         -2.1783864371        1.8185823389        3.4145959009
 H         -0.0032596565        2.5810368788        2.5319978521
 H          1.1621667354        3.5692262408        0.6246684667
 C          0.7730434946        3.2849184999       -1.4371308552
 C          2.0431784694        3.4235388541       -2.2207265378
 C          1.0098499487        2.4234309853       -2.6395072739
 H          0.4367681908        2.6258997047       -3.5330558359
 H          1.2108512362        1.3763478068       -2.4780748830
 H          2.1828293377        4.3073919693       -2.8247474688
 H          2.9512943629        3.0611021088       -1.7610417839
 H          0.0482802732        4.0861985226       -1.5480535794
