  62
        -98.94750175
 C          0.9955348912        1.4940133103        0.4409069997
 C          1.0631902512        0.4210645903       -0.4803771403
 C          1.9719930208       -0.6713137999       -0.1118322101
 C          2.5698534105       -0.6660845201        1.0931234300
 C          3.4811749202       -1.7347898503        1.6336263602
 C          4.9472006503       -1.5794190207        1.2061112306
 C          5.2328714906       -1.9103412207       -0.2591077294
 H          6.3177099306       -1.9656623810       -0.3689035591
 H          4.8308478704       -2.8969077806       -0.4911103995
 C          4.6859748211       -0.8803975605       -1.2572849895
 H          4.4542664111        0.0485390395       -0.7311093095
 H          5.4557895813       -0.6460941307       -1.9959109593
 C          3.4454497811       -1.3375512102       -2.0248133698
 H          3.1271211515       -0.5201362402       -2.6763267398
 H          3.7006329111       -2.1919791503       -2.6550966498
 C          2.2546439608       -1.7262599300       -1.1373931001
 H          2.4410233105       -2.6856750600       -0.6555197301
 H          1.3686795510       -1.8135415998       -1.7696276303
 H          5.2651910505       -0.5560186207        1.4186469307
 H          5.5421161600       -2.2485028808        1.8322025907
 H          3.1136391500       -2.7162517302        1.3326549001
 H          3.4288265399       -1.6647076904        2.7225651502
 O          2.3929627906        0.3358558099        1.9963935800
 C          1.6418229509        1.4548548301        1.6751041798
 O          1.6206904909        2.3334940101        2.5635679499
 O          0.4076096914        0.3778766405       -1.5533577505
 C          0.1719044716        2.7237027305        0.1147386895
 C         -1.2808812885        2.3783374608       -0.1070450108
 C         -2.1023447181        3.1295861510       -0.9406393210
 C         -3.4395794381        2.8056547313       -1.0857598613
 C         -3.9819271985        1.7206233815       -0.4213163415
 C         -3.1666580189        0.9608259412        0.4104431687
 C         -1.8341899289        1.3030860809        0.5733662590
 H         -1.2196916792        0.7120395908        1.2358512791
 N         -3.6775414393       -0.1532867987        1.0969146685
 S         -2.7686575497       -1.5299088189        1.3151965287
 O         -3.7354517200       -2.5210505687        1.7446983685
 O         -1.6819702299       -1.2898194591        2.2337412290
 C         -2.1266613795       -2.0443599190       -0.2705075911
 C         -1.1100650797       -2.9777186592       -0.2449896909
 C         -0.6428032695       -3.5009171093       -1.4391156108
 C         -1.1900877091       -3.0740577591       -2.6389777109
 C         -2.2020523589       -2.1292500489       -2.6493330912
 C         -2.6859245591       -1.6154746888       -1.4561866313
 H         -3.4745040189       -0.8816149986       -1.4548996414
 H         -2.6200724186       -1.7884965588       -3.5828031712
 H         -0.8198364590       -3.4753036692       -3.5692724309
 H          0.1461994803       -4.2358980995       -1.4295889206
 H         -0.7021376500       -3.2690216093        0.7102511192
 H         -4.6421957793       -0.3780005784        0.9009602983
 H         -5.0235164586        1.4628502017       -0.5400148917
 H         -4.0668499178        3.4005632815       -1.7317452015
 H         -1.6931042578        3.9718094509       -1.4742013309
 H          0.2304448015        3.3722463804        1.0024510196
 C          0.7852203420        3.4544115404       -1.0653871103
 C          0.7749249224        4.9513869804       -1.1295434003
 C          2.0549688921        4.2220588101       -0.8567383200
 H          2.8105742723        4.1919720199       -1.6272913598
 H          2.4559079919        4.2481824199        0.1466740401
 H          0.6541857227        5.4255346704       -2.0920104003
 H          0.3176128123        5.4863315804       -0.3106896204
 H          0.6829254421        2.9003941504       -1.9913633203
