  62
        -98.93926210
 C          1.9209118966        0.8076911645        0.7120899688
 C          2.0508947211        0.2136766929       -0.5675330159
 C          2.4558039471       -1.1985220193       -0.5761172557
 C          2.5970597966       -1.8655317511        0.5824056355
 C          2.9735953975       -3.3146421383        0.7328634554
 C          4.4852052465       -3.5765167338        0.6789785844
 C          5.1208829439       -3.4389381746       -0.7050904817
 H          6.1265783901       -3.8584263570       -0.6378704793
 H          4.5623017816       -4.0429589022       -1.4205998154
 C          5.2216366092       -1.9948005153       -1.2156802458
 H          5.0965918033       -1.3034305107       -0.3790520888
 H          6.2187190092       -1.8224752343       -1.6267808814
 C          4.2132813054       -1.6366013144       -2.3074060274
 H          4.4109641345       -2.2349394417       -3.1993792075
 H          4.3513977329       -0.5846457416       -2.5695708153
 C          2.7467061177       -1.8351548375       -1.9016788408
 H          2.1123871247       -1.3488821163       -2.6469384095
 H          2.5025306011       -2.8969717916       -1.8745121737
 H          4.9811548824       -2.8987234272        1.3777205135
 H          4.6507140687       -4.5969602838        1.0320395499
 H          2.6015121868       -3.6307440068        1.7099906404
 H          2.4710544532       -3.9035263973       -0.0351064669
 O          2.3857083728       -1.2799615051        1.7923860881
 C          2.0505236392        0.0607312097        1.8843888637
 O          1.8913539681        0.4664505975        3.0552807971
 O          1.8457366287        0.8171462101       -1.6521799690
 C          1.4986720412        2.2571787100        0.8764003372
 C          0.3101578194        2.5448513327       -0.0101637676
 C          0.2097014345        3.6514834210       -0.8417831245
 C         -0.9298266282        3.8501120161       -1.6031398202
 C         -1.9819908419        2.9560360405       -1.5564294193
 C         -1.8846149382        1.8349677702       -0.7366659432
 C         -0.7542919219        1.6519409991        0.0396347189
 H         -0.6903189884        0.7871623014        0.6858716543
 N         -2.9118277738        0.8770308081       -0.7210421480
 S         -3.0436051262       -0.2325912090        0.5330917831
 O         -3.1213531505        0.4478447663        1.8083342113
 O         -2.0056317091       -1.2247777538        0.3963921274
 C         -4.6227751391       -0.9550325170        0.1297929775
 C         -5.7584979223       -0.5293599080        0.7921843028
 C         -6.9829225641       -1.0785781536        0.4445290142
 C         -7.0506896738       -2.0366397929       -0.5556844477
 C         -5.9017867647       -2.4552911618       -1.2106818248
 C         -4.6746142220       -1.9108287239       -0.8673519266
 H         -3.7536507448       -2.2090026763       -1.3411460711
 H         -5.9571860709       -3.2026039848       -1.9856942889
 H         -8.0044919187       -2.4621524760       -0.8247560515
 H         -7.8770206204       -0.7578472736        0.9543160612
 H         -5.6550617084        0.2115721429        1.5685231728
 H         -3.8075095609        1.2363824417       -1.0191578516
 H         -2.8649629857        3.1102764564       -2.1572258118
 H         -0.9967078242        4.7150356560       -2.2456490347
 H          1.0268731707        4.3505864383       -0.9084785096
 H          1.1496898569        2.3303756374        1.9212765718
 C          2.6312494213        3.2629871505        0.7262297685
 C          4.0616724051        2.8516170843        0.9056670812
 C          3.5606618518        3.2476477973       -0.4488192161
 H          3.8862542297        4.1935197650       -0.8565348628
 H          3.4091410211        2.4783219769       -1.1886769311
 H          4.7252004331        3.5231283400        1.4299152269
 H          4.2609035561        1.8061634615        1.0937445922
 H          2.3638108750        4.2371381972        1.1241306105
