  62
        -98.94263850
 C         -1.9532739049       -1.5565710849       -0.0482044675
 C         -1.5768842292       -0.2764213659       -0.5278055879
 C         -2.6700014231        0.7031444839       -0.6525325355
 C         -3.9281053330        0.3401417373       -0.3478416413
 C         -5.1221574709        1.2480712543       -0.3954940267
 C         -5.3610271365        1.9215282825        0.9630443851
 C         -4.1069484206        2.5553985616        1.5650258895
 H         -3.3923234576        1.7669190337        1.8125603110
 H         -4.4010253002        3.0280751597        2.5047555062
 C         -3.4247807277        3.5920972907        0.6617601579
 H         -3.1634632576        4.4629949073        1.2666924673
 H         -4.1224371335        3.9295865080       -0.1056205846
 C         -2.1343124287        3.1074032288       -0.0022923406
 H         -1.4714758842        2.6777174751        0.7528239298
 H         -1.6296478632        3.9786056384       -0.4271761300
 C         -2.3035990697        2.0804540320       -1.1287780045
 H         -1.3364136849        1.9732327004       -1.6282744110
 H         -3.0322524227        2.4452549391       -1.8555411079
 H         -5.7343010531        1.1692171506        1.6619721481
 H         -6.1335846904        2.6829299471        0.8405011286
 H         -4.9695693068        2.0018241054       -1.1653677345
 H         -5.9984003666        0.6506351987       -0.6534532313
 O         -4.2522130189       -0.9024339583        0.0939654102
 C         -3.2745259531       -1.8640032753        0.2873000325
 O         -3.7006694802       -2.9387561948        0.7559115555
 H          1.6433332094       -2.3404663601       -0.7552134766
 C          1.5175256892       -1.9701743167        0.2501002110
 C          0.2823627113       -2.0619115956        0.8698719212
 C          0.1427450203       -1.5448692901        2.1547555529
 C          1.2100926631       -0.9465253402        2.7966128059
 C          2.4412441346       -0.8508899102        2.1716939098
 C          2.5892825943       -1.3612261988        0.8894823950
 N          3.8345201150       -1.2683441370        0.2391739938
 S          4.5812643963        0.2269887402        0.1488039871
 O          5.6052644884        0.0678999262       -0.8599499421
 O          5.0405484350        0.6085501121        1.4611339844
 C          3.3345822834        1.3651254544       -0.4215739606
 C          2.6508122677        2.1463905959        0.4864619010
 C          1.6704288006        3.0069619666        0.0211615658
 C          1.3903079829        3.0671265478       -1.3341608399
 C          2.0807429742        2.2697700146       -2.2325527557
 C          3.0609880359        1.4069279363       -1.7736188977
 H          3.6279485003        0.7788633999       -2.4422562479
 H          1.8543233799        2.3144118378       -3.2859848109
 H          0.6282723479        3.7406964158       -1.6938978321
 H          1.1258773185        3.6254344880        0.7167731897
 H          2.9015636671        2.0751935665        1.5322728509
 H          3.8375840279       -1.7012505034       -0.6735399466
 H          3.2830989733       -0.3804788206        2.6533502668
 H          1.0840933880       -0.5477724252        3.7921750260
 H         -0.8228087820       -1.6067242290        2.6393182178
 C         -0.9277771791       -2.6529036477        0.1911759801
 H         -1.4103381959       -3.3463639439        0.8992467740
 C         -0.5853910062       -3.4682259594       -1.0469625155
 C         -1.6169745677       -3.7302256374       -2.1021336938
 C         -0.4437475892       -2.8495099977       -2.4042330291
 H          0.3227525909       -3.2308218269       -3.0636821536
 H         -0.6048858667       -1.7865546402       -2.4894163996
 H         -2.5867609811       -3.2708481676       -1.9778739324
 H         -1.6549713224       -4.7122275805       -2.5493313747
 H          0.0816647900       -4.2931213141       -0.8139490740
 O         -0.4033719793        0.0465337959       -0.8415309701
