  62
        -98.94117291
 C         -2.1481604900       -0.8193680101       -0.3503312605
 C         -3.0587143600       -0.5792805902        0.7132813595
 C         -3.6007936701        0.7799920997        0.8217239696
 C         -3.1961705802        1.7170186598       -0.0544848704
 C         -3.6914882704        3.1330908198       -0.0899492503
 C         -4.9092376604        3.2760082497       -1.0136977103
 C         -6.0005995503        2.2358664496       -0.7612237704
 H         -6.8218015303        2.4531214195       -1.4475508503
 H         -5.6164654302        1.2469925496       -1.0214825404
 C         -6.5309045003        2.2093649695        0.6790627396
 H         -6.2664090503        3.1366113995        1.1885185997
 H         -7.6210818903        2.1547162793        0.6499852496
 C         -6.0476462701        1.0197611995        1.5107297396
 H         -6.2241402300        0.0921451995        0.9606407896
 H         -6.6465307201        0.9776166194        2.4243046496
 C         -4.5735268001        1.0555360096        1.9337382796
 H         -4.3497678302        2.0123500296        2.4103678696
 H         -4.4184316301        0.2613868396        2.6699454896
 H         -5.3219297305        4.2783835496       -0.8863713703
 H         -4.5723865604        3.1754128698       -2.0479846103
 H         -3.9488580704        3.4456403897        0.9203702897
 H         -2.8855104204        3.7683876799       -0.4615875003
 O         -2.3103170802        1.4596156700       -1.0472608504
 C         -1.7620174301        0.1975591500       -1.2234077905
 O         -0.9652481201        0.1397101601       -2.1828577205
 H          0.6816641801       -0.9310539597       -1.1702502605
 C          0.8342558001       -1.5457565898       -0.2951473605
 C         -0.2241789798       -2.2903041499        0.2062893194
 C         -0.0135403997       -3.0559884399        1.3467465894
 C          1.2239079103       -3.0727217398        1.9670608494
 C          2.2738067502       -2.3223147097        1.4684488894
 C          2.0691256301       -1.5475174697        0.3348363195
 N          3.1297503400       -0.7525228295       -0.1700268205
 S          3.5144532499        0.5842492005        0.7948137895
 O          3.7681985200        0.1226207404        2.1356302495
 O          2.5038054498        1.6132833104        0.6543786796
 C          5.0390351099        1.1152983607        0.0408575396
 C          6.1864497499        0.3914725108        0.3026164695
 C          7.3736067399        0.7787217009       -0.2975292605
 C          7.3933095798        1.8766340909       -1.1451114904
 C          6.2333396597        2.5927072208       -1.3982178604
 C          5.0419329997        2.2092256307       -0.8020717304
 H          4.1168945397        2.7393213206       -0.9651048404
 H          6.2508777996        3.4466371709       -2.0562855604
 H          8.3185765597        2.1777094710       -1.6104407004
 H          8.2780638499        0.2253190510       -0.1028778805
 H          6.1245432700       -0.4486045293        0.9739850095
 H          2.8912585900       -0.3924491095       -1.0869107405
 H          3.2335337502       -2.3062832396        1.9572804394
 H          1.3708297603       -3.6716953798        2.8530228894
 H         -0.8351676197       -3.6234319000        1.7592832194
 C         -1.5831459098       -2.2279166600       -0.4501735506
 H         -2.2662397797       -2.8528959901        0.1406954194
 C         -1.5389908698       -2.7713560999       -1.8643135106
 C         -1.4843089196       -4.2546135899       -2.0689703106
 C         -2.7319488197       -3.4966465100       -2.4075215706
 H         -2.9888743897       -3.3575417300       -3.4468436006
 H         -3.5879775297       -3.6067048302       -1.7577134206
 H         -0.8815524496       -4.6400116698       -2.8766931006
 H         -1.4951725595       -4.8808858700       -1.1898697007
 H         -0.9839503298       -2.1458787999       -2.5508758206
 O         -3.4048180299       -1.4703414303        1.5344499795
