  62
        -98.94079086
 C         -1.8519977506       -0.7667539802        0.5053749035
 C         -2.3085393739        0.0479673658       -0.5605375367
 C         -3.4401551559        0.9362749529       -0.2461540340
 C         -3.9227608579        0.9803671702        1.0080336945
 C         -5.1064008718        1.7917157438        1.4466568227
 C         -6.4069679168        0.9846572584        1.3273945122
 C         -6.5837723804        0.2929513214       -0.0244003198
 H         -5.8147504166       -0.4748342188       -0.1361876125
 H         -7.5478794557       -0.2196182361       -0.0034271549
 C         -6.5333812395        1.2383345937       -1.2328214143
 H         -7.3480848034        0.9809994571       -1.9129288605
 H         -6.6968300086        2.2660867712       -0.9064622608
 C         -5.2373400658        1.1642291670       -2.0423817297
 H         -5.3914980613        1.7023561577       -2.9814245893
 H         -5.0226540631        0.1226377557       -2.2947137477
 C         -3.9957612544        1.7642610495       -1.3703738295
 H         -3.2024214046        1.8181202855       -2.1220520340
 H         -4.2150248622        2.7787610369       -1.0309125936
 H         -7.2476208333        1.6573739039        1.5065638929
 H         -6.4123996333        0.2194034749        2.1071786062
 H         -5.1682928697        2.6926455929        0.8391864897
 H         -4.9606629418        2.0774516995        2.4898770360
 O         -3.4023111084        0.2459289746        2.0246579298
 C         -2.3631275084       -0.6425266933        1.7996117823
 O         -1.9761487263       -1.2446842218        2.8215524748
 O         -1.8111908464        0.0431962648       -1.7151090486
 C         -0.7165825955       -1.7593409509        0.3202583195
 C          0.4198854977       -1.1078793646       -0.4293010005
 C          0.9333298838       -1.5852984996       -1.6270925799
 C          1.9758275942       -0.9249137879       -2.2546524248
 C          2.5319001442        0.2135998399       -1.7025893930
 C          2.0332872711        0.6927958006       -0.4972673184
 C          0.9943045953        0.0264960296        0.1329165273
 H          0.6013708590        0.4048405121        1.0693596604
 N          2.5980844240        1.8431052817        0.0789412798
 S          4.2644982319        1.9837136314        0.0916718091
 O          4.5637692816        2.8228815606        1.2311231584
 O          4.7224816717        2.4723386126       -1.1850889227
 C          4.8737982729        0.3276445035        0.3574431044
 C          5.6748803406       -0.2743105604       -0.5911937702
 C          6.1103038284       -1.5720448132       -0.3749195202
 C          5.7352799506       -2.2429319403        0.7784510392
 C          4.9327232113       -1.6231117990        1.7243244272
 C          4.4966172281       -0.3252441352        1.5143360463
 H          3.8762662177        0.1860311318        2.2332665781
 H          4.6420074787       -2.1458779592        2.6214877531
 H          6.0701876389       -3.2547073629        0.9438122939
 H          6.7362759630       -2.0557317665       -1.1072577170
 H          5.9401221619        0.2829824546       -1.4747761814
 H          2.1979032100        2.0992930924        0.9688736187
 H          3.3290732218        0.7497297616       -2.1914285991
 H          2.3558993742       -1.2985124860       -3.1931257665
 H          0.4987034371       -2.4573229884       -2.0865620729
 H         -0.3612229823       -1.9732396941        1.3419432409
 C         -1.1480049797       -3.0926703606       -0.2724712922
 C         -2.5399240434       -3.6108949770       -0.0697890185
 C         -2.0884638743       -3.1899440466       -1.4344118384
 H         -1.9119096327       -3.9581801856       -2.1731394177
 H         -2.4713757658       -2.2699183684       -1.8460232561
 H         -2.6716806239       -4.6638194702        0.1295405448
 H         -3.2380822984       -2.9774935172        0.4587051417
 H         -0.3529005492       -3.8302658372       -0.2267784914
