  62
        -98.94000643
 C          1.1389919914        1.2298141689        0.5732654248
 C          1.7760387031        0.8744607503       -0.6372677943
 C          2.6508774783       -0.3174414042       -0.6007930440
 C          2.7167471347       -1.0425447983        0.5306361530
 C          3.5742480961       -2.2454590663        0.8242897488
 C          5.0423792356       -1.8708288105        1.0789677860
 C          5.6349501869       -0.8925801804        0.0685817482
 H          5.0583786011        0.0339076253        0.0857031853
 H          6.6484677265       -0.6489654131        0.3980843397
 C          5.7221537140       -1.4109849042       -1.3654045921
 H          6.2711473017       -0.6642028958       -1.9447286174
 H          6.3064871722       -2.3336397283       -1.3784772248
 C          4.3875304150       -1.6672700458       -2.0712134791
 H          3.9564302665       -2.6184577867       -1.7704562813
 H          4.5976349143       -1.7495000928       -3.1416155455
 C          3.3608537939       -0.5505078675       -1.9129399814
 H          2.5681146014       -0.6968736516       -2.6565616765
 H          3.8268100209        0.4044981001       -2.1814804998
 H          5.6341731569       -2.7877813975        1.0916018351
 H          5.1100992852       -1.4120309322        2.0684706982
 H          3.1718042888       -2.7044249244        1.7299664525
 H          3.5043031021       -2.9707333659        0.0193007079
 O          1.9888681167       -0.7234046003        1.6395070937
 C          1.2020912196        0.4050904500        1.6973826278
 O          0.6082639974        0.5676248180        2.7840640365
 O          1.6532933007        1.5211585699       -1.7095984898
 C          0.2893142934        2.4865418269        0.6899159371
 C         -1.0186051709        2.2397199149       -0.0197887218
 C         -1.3193629883        2.7398802136       -1.2793088224
 C         -2.5194359547        2.4176497920       -1.8917069770
 C         -3.4416315302        1.6002513662       -1.2631689835
 C         -3.1465222137        1.0943919417       -0.0034143709
 C         -1.9447537685        1.4138264529        0.6074388071
 H         -1.7073592597        1.0082403238        1.5830662809
 N         -4.0759248205        0.2397649550        0.6362040841
 S         -4.2280234196       -1.2812695476       -0.0464781850
 O         -4.7028338719       -1.1341306283       -1.3978749944
 O         -5.0700833416       -2.0355544256        0.8528422459
 C         -2.5779115767       -1.9590822227       -0.0470567183
 C         -1.6863676744       -1.5525880825       -1.0200175030
 C         -0.3918166245       -2.0444225892       -0.9865284383
 C         -0.0143102200       -2.9303900142        0.0101884275
 C         -0.9189446292       -3.3231938851        0.9838965598
 C         -2.2124384818       -2.8281486665        0.9611597250
 H         -2.9489915318       -3.1085943817        1.6971598022
 H         -0.6180373892       -4.0079827307        1.7604158659
 H          0.9925893872       -3.3149761508        0.0279904957
 H          0.3190256280       -1.7267447948       -1.7328155503
 H         -2.0122556633       -0.8692315274       -1.7875009479
 H         -3.8892186101        0.1312187579        1.6240789161
 H         -4.3717565486        1.3272222157       -1.7341944876
 H         -2.7393931519        2.8094487176       -2.8732387383
 H         -0.6058734295        3.3658832199       -1.7887007816
 H          0.0688630524        2.5963001382        1.7608005679
 C          1.0243899628        3.7222095919        0.2183223395
 C          0.5024177988        5.0729671684        0.6025391829
 C          1.7672024223        4.5553509207        1.2172914071
 H          2.7052863051        5.0003682053        0.9211280052
 H          1.7417760930        4.2408666178        2.2507427922
 H          0.5707748957        5.8763642775       -0.1147438988
 H         -0.3833912946        5.1083261282        1.2188104613
 H          1.4712943366        3.6097745380       -0.7609253657
