  62
        -98.93735111
 C         -1.4440130331       -1.6755608271       -0.0691061503
 C         -1.3599189682       -0.3126998133        0.3013610081
 C         -2.6376897260        0.3750860918        0.5942674791
 C         -3.7839851010       -0.3269138083        0.5486109883
 C         -5.1910599110        0.1647176946        0.7626305245
 C         -5.7322363173        0.9539182188       -0.4403443655
 C         -4.7572314629        1.9660788638       -1.0361035761
 H         -3.8487533337        1.4472194714       -1.3471064553
 H         -5.2187094849        2.3790756953       -1.9370801009
 C         -4.3900582494        3.1325020701       -0.1217607085
 H         -3.7730242211        3.8193935096       -0.7064130566
 H         -5.3006309373        3.6650964823        0.1616532679
 C         -3.6215191702        2.7683264400        1.1505837102
 H         -4.2863231629        2.3620139385        1.9080225601
 H         -3.2156499416        3.6968363968        1.5621315543
 C         -2.4369398797        1.8328807927        0.9307964057
 H         -1.8106615639        1.8406446784        1.8306623550
 H         -1.8002739482        2.2383764828        0.1370132039
 H         -6.6482214386        1.4626053519       -0.1348208288
 H         -5.9905599070        0.2384667199       -1.2251966474
 H         -5.8139841089       -0.7211340725        0.9057236259
 H         -5.2463954638        0.7573162126        1.6709136562
 O         -3.8081782271       -1.6577804185        0.2458096015
 C         -2.6611089292       -2.3597824020       -0.0657207972
 O         -2.8477441240       -3.5698850229       -0.3070392787
 O         -0.2813249379        0.3272589020        0.3839500797
 C         -0.2093258083       -2.4829117981       -0.4311649643
 C          0.9055388998       -2.1814339595        0.5382853240
 C          0.7595779325       -2.5692904874        1.8676561923
 C          1.7435610015       -2.2912789444        2.7963474879
 C          2.8902354121       -1.6140443894        2.4204404502
 C          3.0453723999       -1.2247182674        1.0954332519
 C          2.0620238952       -1.5181850871        0.1614880781
 H          2.2042211994       -1.1979498431       -0.8562469551
 N          4.2029956270       -0.5501146694        0.6849730541
 S          4.1757480645        0.5743169312       -0.5458870173
 O          4.0337677469       -0.0861078942       -1.8202100366
 O          5.4101617987        1.3121062526       -0.3639133303
 C          2.8019222866        1.6722758703       -0.2538810374
 C          2.6577661000        2.2376145914        0.9963106137
 C          1.6347462593        3.1461487244        1.2056483850
 C          0.7825010232        3.4789415263        0.1653748801
 C          0.9394148166        2.9007338609       -1.0830492235
 C          1.9578423576        1.9872209030       -1.2965619466
 H          2.1083493868        1.5083961732       -2.2510501121
 H          0.2688805274        3.1514661412       -1.8905896807
 H         -0.0126197868        4.1892604338        0.3316600806
 H          1.5018919424        3.5899343425        2.1795274012
 H          3.3390955346        1.9673255217        1.7869702949
 H          4.8320895243       -0.2815241561        1.4265177333
 H          3.6576962265       -1.3877391462        3.1449987039
 H          1.6151122444       -2.5963896831        3.8240636409
 H         -0.1445833815       -3.0842414916        2.1642680867
 H         -0.5046654520       -3.5363987063       -0.2937558978
 C          0.2153744150       -2.3347406363       -1.8847439674
 C         -0.7970684720       -2.1179696265       -2.9682343999
 C          0.1590180724       -1.0232762122       -2.6062756542
 H          0.9587027097       -0.7883034688       -3.2944070053
 H         -0.2141007713       -0.1701874487       -2.0618049368
 H         -0.6620104580       -2.6334080620       -3.9072507936
 H         -1.8309968690       -2.0147142458       -2.6719512598
 H          1.0492094124       -2.9861441691       -2.1304882918
