  62
        -98.94514315
 C         -0.8615371692       -1.1957306693        0.2558161002
 C         -1.6878489194       -0.6610939690        1.2760192699
 C         -2.5057878394        0.4978230508        0.9018878094
 C         -2.3896079092        1.0237991704       -0.3304357808
 C         -3.1801804192        2.1822904702       -0.8759548812
 C         -4.5666239091        1.7929409300       -1.4089285614
 C         -5.6074452392        1.4503929903       -0.3422049914
 H         -5.6466309794        2.2504811706        0.3976756183
 H         -6.5785344691        1.4202468201       -0.8403746216
 C         -5.3752678993        0.1067682006        0.3628639190
 H         -6.3173806393       -0.4431569995        0.4201344491
 H         -4.6865148292       -0.5010165996       -0.2287807907
 C         -4.8325781195        0.2241948710        1.7872985491
 H         -5.5743436297        0.7115413012        2.4240198988
 H         -4.6663473296       -0.7838357989        2.1765045694
 C         -3.5111999196        0.9966478911        1.8952290591
 H         -3.0992677497        0.8351221014        2.8947964292
 H         -3.6861144096        2.0635982710        1.7585569887
 H         -4.9407607790        2.6398956898       -1.9885963817
 H         -4.4537240089        0.9472778598       -2.0909965411
 H         -3.2881050193        2.9488830505       -0.1080878015
 H         -2.6004284290        2.5913853800       -1.7048133913
 O         -1.5034488590        0.5501984202       -1.2436717405
 C         -0.7224649391       -0.5693038997       -0.9836555000
 O          0.0335790911       -0.8821598200       -1.9205954198
 O         -1.7475115496       -1.1379059487        2.4414914200
 C         -0.0730618392       -2.4516557192        0.5755093207
 C          1.3549905708       -2.3174194893        0.1132984009
 C          1.9766093010       -3.2117632595       -0.7481638087
 C          3.2955851911       -3.0216723296       -1.1212440085
 C          4.0163061609       -1.9392038295       -0.6535772588
 C          3.4019545908       -1.0376691592        0.2094119909
 C          2.0865500307       -1.2371854591        0.5926856707
 H          1.6200362806       -0.5363312689        1.2707614504
 N          4.1088279706        0.0678903210        0.7048332806
 S          3.3372131505        1.4793618011        1.1201871401
 O          4.3990946705        2.4648427611        1.1500016299
 O          2.6153112803        1.3140421514        2.3583372700
 C          2.2051641607        1.9082492806       -0.1912782203
 C          2.4733796010        1.5659595702       -1.5005588101
 C          1.6166669411        2.0066423899       -2.4963250004
 C          0.5264944410        2.7970632200       -2.1727650908
 C          0.2730477708        3.1377820704       -0.8536286010
 C          1.1143018107        2.6831411407        0.1476275393
 H          0.9427643105        2.9088928910        1.1886425892
 H         -0.5763483593        3.7511379204       -0.5984935113
 H         -0.1327024588        3.1431098297       -2.9533878910
 H          1.8017513513        1.7270010496       -3.5206630503
 H          3.3270059510        0.9528529402       -1.7386791098
 H          5.0141307207        0.2316264809        0.2905007707
 H          5.0426108010       -1.7870865295       -0.9509832586
 H          3.7662346312       -3.7220477998       -1.7942952682
 H          1.4246133911       -4.0473040097       -1.1451122285
 H         -0.0629707294       -2.4945791589        1.6783599007
 C         -0.7445580791       -3.7317588094        0.0970215110
 C         -2.2291192191       -3.8026045595       -0.0967050692
 C         -1.3158015689       -3.8622913998       -1.2821981490
 H         -1.2069530088       -4.8061570500       -1.7960970587
 H         -1.2534397288       -3.0016163800       -1.9294753793
 H         -2.7425860891       -4.7027598194        0.2066237710
 H         -2.8002887791       -2.9001103695        0.0666377404
 H         -0.2766821892       -4.6167596892        0.5173984314
