  62
        -98.93103325
 C         -2.3777020486       -1.1391669715       -0.1714347551
 C         -2.4777496527        0.1796914195        0.3310275746
 C         -3.8403046254        0.6678445237        0.6276040413
 C         -4.8961294860       -0.1439520241        0.4386257986
 C         -6.3756811569        0.0673999929        0.6838751486
 C         -6.9389257028        1.4684095093        0.9080998098
 C         -6.8668212577        2.3904455533       -0.3085128777
 H         -7.5603911320        2.0198186893       -1.0674873170
 H         -7.2059065883        3.3831410048       -0.0045881957
 C         -5.4928599762        2.5145247972       -0.9625451659
 H         -5.1892413482        1.5464255564       -1.3664937739
 H         -5.5862200038        3.1997416550       -1.8095321306
 C         -4.3825820446        3.0446135369       -0.0570966431
 H         -3.5085735443        3.2358792088       -0.6859697252
 H         -4.6900395766        3.9946455873        0.3841170486
 C         -3.9402579786        2.0983606068        1.0728884786
 H         -2.9337355525        2.3918658704        1.3854359248
 H         -4.5899764931        2.1856636458        1.9403033466
 H         -7.9947021919        1.3408572636        1.1622524874
 H         -6.4628349548        1.9331854802        1.7663526703
 H         -6.8853437453       -0.3905770547       -0.1698129419
 H         -6.6228782980       -0.5483389137        1.5557357176
 O         -4.7429583310       -1.4284512881       -0.0008470790
 C         -3.5026197036       -1.9534197072       -0.3123890405
 O         -3.5318174349       -3.1416589210       -0.6905092386
 O         -1.4887392078        0.9294835068        0.5359965259
 C         -1.0411744376       -1.7612701655       -0.5345733032
 C         -0.0119868724       -1.4619943654        0.5272694946
 C         -0.2278909159       -1.9380712437        1.8184595412
 C          0.6906964755       -1.7010549786        2.8218984551
 C          1.8555516263       -1.0028107213        2.5554000470
 C          2.0769655415       -0.5180963211        1.2724467721
 C          1.1454555185       -0.7467253106        0.2691710027
 H          1.3353534049       -0.3392487354       -0.7096380945
 N          3.2347594229        0.2177095408        0.9730428027
 S          3.9293651548        0.0295872154       -0.5525079532
 O          3.2920688154        0.9302562913       -1.4795968905
 O          3.9358270069       -1.3680081215       -0.9243783679
 C          5.5917117943        0.5875531729       -0.2242318380
 C          6.5806990934       -0.3423635547        0.0354651508
 C          7.8629764293        0.1030784704        0.3158209048
 C          8.1324658919        1.4632648065        0.3344551574
 C          7.1295189948        2.3847507151        0.0716588935
 C          5.8456517582        1.9462326393       -0.2107682352
 H          5.0368610468        2.6237135528       -0.4303408249
 H          7.3434090822        3.4413083929        0.0843702163
 H          9.1311253717        1.8075425955        0.5521451243
 H          8.6454596257       -0.6107042278        0.5170887978
 H          6.3264020149       -1.3895516682        0.0011423338
 H          3.9245166664        0.1899407105        1.7111378812
 H          2.5782274252       -0.8230898196        3.3369548093
 H          0.5050734218       -2.0720212879        3.8188710477
 H         -1.1349530158       -2.4914412275        2.0238326346
 H         -1.2216179824       -2.8498784670       -0.5245442377
 C         -0.5598128384       -1.4162906004       -1.9361461385
 C         -1.5293979614       -1.1689640793       -3.0518073468
 C         -0.7007253327       -0.0424039130       -2.5155476509
 H          0.1091527020        0.3413763404       -3.1195995369
 H         -1.1798725947        0.7085227102       -1.9074753072
 H         -1.2963453966       -1.5624664419       -4.0297757924
 H         -2.5826525326       -1.1895362409       -2.8116128812
 H          0.3440329999       -1.9606453475       -2.1972119769
