  62
        -98.94512028
 C         -0.9480799005       -1.2409712678        0.4696207035
 C         -1.4899164735       -0.0853451947        1.0846957098
 C         -2.2497777463        0.8211410198        0.2142405937
 C         -2.3313026464        0.5501231635       -1.1009113831
 C         -3.0854444051        1.3781155192       -2.1005874130
 C         -4.5299312644        0.8844426530       -2.2605776295
 C         -5.2629232267        0.6883295691       -0.9334092029
 H         -6.2810118631        0.3705688927       -1.1680812310
 H         -4.7896189957       -0.1288275034       -0.3842482895
 C         -5.3079636210        1.9381249560       -0.0432546211
 H         -6.3207157620        2.0516537604        0.3489065079
 H         -5.0901819839        2.8248633044       -0.6395463756
 C         -4.3663347319        1.8924652896        1.1614351627
 H         -4.6364580132        2.7109848273        1.8337430093
 H         -4.5167486774        0.9576377428        1.7070980015
 C         -2.8706087811        2.0334254259        0.8505961385
 H         -2.7040129586        2.9208649577        0.2355372381
 H         -2.3486215977        2.1657907539        1.8028318567
 H         -5.0734571661        1.6025071442       -2.8774351590
 H         -4.5119096012       -0.0718446879       -2.7886159393
 H         -2.5711229669        1.3026377982       -3.0606647749
 H         -3.0790543808        2.4186658048       -1.7803796290
 O         -1.7636361140       -0.5433479509       -1.6660424992
 C         -1.0426896394       -1.4554123654       -0.9079883306
 O         -0.5639515921       -2.3933201705       -1.5721691306
 O         -1.3328036596        0.1844020907        2.3060019315
 C         -0.0955314092       -2.1569241540        1.3327567510
 C          1.2431419907       -2.3335166119        0.6617563762
 C          1.8237327050       -3.5585116499        0.3664241905
 C          3.0310469027       -3.6104787281       -0.3100954125
 C          3.6657183840       -2.4544553506       -0.7250641431
 C          3.0937885450       -1.2223238867       -0.4270106789
 C          1.9143855386       -1.1737756040        0.2932091689
 H          1.4739047824       -0.2152510266        0.5266472705
 N          3.6923203355       -0.0180251062       -0.8287309907
 S          2.7177627257        1.2636987558       -1.2941768083
 O          1.4925359161        0.8278318680       -1.9222988073
 O          3.5872974787        2.0905876165       -2.1068950708
 C          2.3734786294        2.1279061948        0.2233598075
 C          3.4310583560        2.4479197622        1.0518824775
 C          3.1755917178        3.1401753305        2.2243878586
 C          1.8757149977        3.5032467411        2.5436813170
 C          0.8260473209        3.1803782514        1.6980095107
 C          1.0748071237        2.4857498882        0.5250472231
 H          0.2824599947        2.1990966701       -0.1507370629
 H         -0.1859537861        3.4552931451        1.9478849390
 H          1.6759589344        4.0398017720        3.4577094165
 H          3.9883067389        3.3933725275        2.8858861888
 H          4.4260645760        2.1506540375        0.7660947118
 H          4.4932369706       -0.1211888914       -1.4349374763
 H          4.5876780837       -2.5007213956       -1.2845877120
 H          3.4714816450       -4.5686937742       -0.5410964949
 H          1.3204545119       -4.4720737285        0.6372592515
 H          0.0647104427       -1.5768748612        2.2578574327
 C         -0.7566647820       -3.4596632550        1.7526537606
 C         -2.2494362366       -3.5871964627        1.7967338979
 C         -1.4614627599       -4.3585652913        0.7830459448
 H         -1.3671886614       -5.4266691019        0.9156541005
 H         -1.4995571956       -4.0469025758       -0.2485150491
 H         -2.6968912942       -4.1217691161        2.6212132931
 H         -2.8317640005       -2.7441992225        1.4533280248
 H         -0.2125574423       -3.9473226583        2.5558470645
