  62
        -98.93369719
 C         -2.2113178718       -0.7719261630       -0.3066106182
 C         -3.4641172460       -0.9758663155        0.3221853140
 C         -4.3118256095        0.2126540366        0.4786645646
 C         -3.8550065780        1.4112685662        0.0738086675
 C         -4.5604968246        2.7349475671        0.2088033375
 C         -5.8637702386        2.8974580674       -0.5975872114
 C         -7.1387290992        2.5610759504        0.1858447448
 H         -6.9382229923        2.6819913206        1.2511101950
 H         -7.9109836427        3.2886903190       -0.0719003566
 C         -7.7316689290        1.1718915700       -0.0684868023
 H         -8.2655129054        1.1810893153       -1.0214765636
 H         -8.4643691247        0.9727053404        0.7164972998
 C         -6.7308954808        0.0171340015       -0.1160509753
 H         -7.2908026833       -0.9199721921       -0.1001681372
 H         -6.1908115000        0.0377767764       -1.0655438896
 C         -5.6957107258        0.0148654250        1.0256185668
 H         -5.9308907623        0.7825028554        1.7613330362
 H         -5.6963580618       -0.9547683043        1.5274988266
 H         -5.8055330987        2.2996277966       -1.5067067119
 H         -5.9176540560        3.9439317952       -0.9018298067
 H         -4.7636358730        2.9167513136        1.2666926798
 H         -3.8386734131        3.4834865234       -0.1243959333
 O         -2.6279865500        1.5707610442       -0.4933295384
 C         -1.7824345679        0.4925564254       -0.7097530395
 O         -0.7065565073        0.7947311056       -1.2614755766
 H          1.2530176079       -1.1629384134       -1.1387725407
 C          1.1288571613       -1.3572527252       -0.0852032783
 C         -0.0952192805       -1.7935607973        0.3942873306
 C         -0.2371836183       -2.0089732462        1.7627841487
 C          0.8212971241       -1.7932958904        2.6239786202
 C          2.0433418192       -1.3560772884        2.1418410484
 C          2.1919312063       -1.1293675793        0.7808184962
 N          3.4322937433       -0.6965706404        0.2679931119
 S          4.2149517522        0.5697153165        1.0664289351
 O          4.7815335660        0.0590258090        2.2899850696
 O          3.3315841674        1.7067854644        1.2080914541
 C          5.5181540454        0.9276331171       -0.0947606310
 C          5.2984593911        1.8661058288       -1.0851558891
 C          6.3046918810        2.1176821803       -2.0046446022
 C          7.5051014500        1.4281533814       -1.9201955637
 C          7.7104252999        0.4892066991       -0.9203778352
 C          6.7089540137        0.2335473330        0.0027040687
 H          6.8247236478       -0.4805151086        0.8010617020
 H          8.6458046662       -0.0429192958       -0.8571717759
 H          8.2857982545        1.6264865312       -2.6374549152
 H          6.1482283662        2.8488186415       -2.7814881547
 H          4.3529102283        2.3850468899       -1.1083121911
 H          3.3583703344       -0.4747192687       -0.7166568987
 H          2.8724286322       -1.1706659131        2.8048667330
 H          0.6970070993       -1.9636830205        3.6830636156
 H         -1.1960283657       -2.3344642178        2.1423810983
 C         -1.2985049587       -1.9720332061       -0.4976472783
 H         -1.8713444319       -2.8331751865       -0.1275040792
 C         -0.9629286452       -2.1993841454       -1.9560487277
 C         -0.3916806129       -3.5177586653       -2.3821365512
 C         -1.7957698100       -3.1529759059       -2.7570803851
 H         -2.0089105554       -2.9091520287       -3.7871014209
 H         -2.6079516555       -3.6531920340       -2.2504088037
 H         -0.2488507722       -4.2662972285       -1.6176791911
 H          0.3604838816       -3.5291674163       -3.1559831404
 H         -0.6148518195       -1.3054130536       -2.4594351583
 O         -3.8542654734       -2.0996235700        0.7373241262
