  62
        -98.94494738
 C         -1.8729019104       -0.7442594600       -0.1601235895
 C         -2.4246613705       -0.0907149595        0.9669808102
 C         -3.4857752004        0.8861915804        0.6895292697
 C         -3.8365923503        1.1300495599       -0.5866753005
 C         -4.9324871902        2.0640122998       -1.0096905509
 C         -6.2742425102        1.3281482698       -1.1313632508
 C         -6.6194869704        0.4672132303        0.0837548495
 H         -7.5996210204        0.0224344602       -0.1011800504
 H         -5.9022051504       -0.3536383497        0.1541126899
 C         -6.6474241705        1.2303770708        1.4154012792
 H         -6.7287302204        2.3015702307        1.2272228788
 H         -7.5379159006        0.9309363311        1.9720495592
 C         -5.4450560206        0.9653271711        2.3232529594
 H         -5.6689311607        1.3744774315        3.3120770293
 H         -5.3044835506       -0.1122702288        2.4392220099
 C         -4.1156233105        1.5784571609        1.8656238693
 H         -3.4027138006        1.4776331412        2.6894758795
 H         -4.2526064305        2.6421677108        1.6595313489
 H         -7.0601661502        2.0687429598       -1.2905559812
 H         -6.2347372802        0.6803518294       -2.0101115005
 H         -4.6691659201        2.4845194094       -1.9817902511
 H         -5.0140189803        2.8726828401       -0.2857581713
 O         -3.2537290602        0.5143734095       -1.6465947901
 C         -2.2626111503       -0.4403317405       -1.4648628397
 O         -1.8186928402       -0.9271491509       -2.5208800694
 O         -2.0404046906       -0.3075042091        2.1486817603
 C         -0.7833398805       -1.7793816199        0.0528986010
 C          0.4999898996       -1.3262275602       -0.5994293090
 C          1.2881269497       -2.1479685706       -1.3936661286
 C          2.4538411698       -1.6642990409       -1.9638463587
 C          2.8636274098       -0.3621330708       -1.7483961592
 C          2.0925472397        0.4627641896       -0.9381802196
 C          0.9281143496       -0.0244415602       -0.3659885595
 H          0.3284427996        0.6217361401        0.2633394002
 N          2.5072362397        1.7833353396       -0.6968651600
 S          4.1188669797        2.0457515097       -0.3319447900
 O          4.1349788797        3.2547381600        0.4615912195
 O          4.8925922398        2.0826413692       -1.5479511799
 C          4.6112830696        0.6419584501        0.6532076106
 C          3.9463613294        0.4168004406        1.8423761406
 C          4.2923645293       -0.6864482491        2.6051854211
 C          5.2923327893       -1.5418281893        2.1678587916
 C          5.9539596195       -1.2992165398        0.9743859315
 C          5.6105424596       -0.1980930201        0.2062474511
 H          6.0967881297        0.0267983695       -0.7288914090
 H          6.7323204195       -1.9648411200        0.6380829319
 H          5.5565486092       -2.4015745691        2.7630204819
 H          3.7779380492       -0.8759813487        3.5336576811
 H          3.1759583594        1.1024041607        2.1578418203
 H          1.9002392297        2.2983919799       -0.0768918903
 H          3.7581432498        0.0337709490       -2.2010273092
 H          3.0495148598       -2.3106270911       -2.5899244384
 H          0.9854287897       -3.1654665306       -1.5768587182
 H         -0.6184621906       -1.8069828895        1.1405682510
 C         -1.2496192905       -3.1456589001       -0.4030534385
 C         -0.7111281206       -4.3836323599        0.2477922821
 C         -2.1221317006       -3.9529339897        0.5094376417
 H         -2.9283085606       -4.5269777999        0.0776882119
 H         -2.3584385207       -3.5280033093        1.4742547015
 H         -0.5495143205       -5.2588322401       -0.3630987576
 H          0.0108860393       -4.2579800296        1.0401671521
 H         -1.4723520403       -3.1765612505       -1.4636117985
