  62
        -98.93945556
 C         -0.7074000612       -1.2927476101        0.6628465437
 C         -1.3928047906       -1.1328328898       -0.5646545006
 C         -2.3867551987       -0.0510204484       -0.6052989079
 C         -2.5540619777        0.7409547617        0.4684586355
 C         -3.5057411831        1.9017711360        0.5827799164
 C         -5.0063710102        1.5513220884        0.5342099040
 C         -5.6374791871        1.6712300208       -0.8586415173
 H         -6.6332620921        2.1073232647       -0.7560272651
 H         -5.0488092057        2.3713479963       -1.4523177826
 C         -5.8038404164        0.3602595681       -1.6333857228
 H         -6.6717396552       -0.1769105531       -1.2438407363
 H         -6.0152725208        0.6122449754       -2.6748276925
 C         -4.6148900144       -0.6001472133       -1.5885267457
 H         -4.5841195266       -1.1013892836       -0.6180325572
 H         -4.7805607370       -1.3819647048       -2.3325014646
 C         -3.2429102574        0.0586839306       -1.8331645447
 H         -2.7137461767       -0.4688263486       -2.6291896155
 H         -3.3627365105        1.0994238715       -2.1287272818
 H         -5.1606994996        0.5510525340        0.9379128233
 H         -5.5169327260        2.2495005943        1.1993716405
 H         -3.2808992895        2.3701108428        1.5424144056
 H         -3.2786944101        2.6192983873       -0.2078538093
 O         -1.8261845967        0.5912933653        1.6094558514
 C         -0.9001477819       -0.4294038898        1.7401178616
 O         -0.3175638279       -0.4591228639        2.8440414682
 O         -1.1891423356       -1.8544837138       -1.5751177507
 C          0.3178356745       -2.4018668416        0.8120712985
 C          1.4163881080       -2.2146470858       -0.2061962100
 C          1.9019989065       -3.2319141964       -1.0164910998
 C          2.9100348782       -2.9740392191       -1.9296910142
 C          3.4624331411       -1.7116731504       -2.0417143795
 C          2.9892326947       -0.6881154170       -1.2274992329
 C          1.9731632513       -0.9472495436       -0.3236204322
 H          1.6064163606       -0.1522229757        0.3095957578
 N          3.5053752717        0.6116186981       -1.3246058524
 S          3.6107205904        1.5817101355        0.0312201399
 O          4.5589930464        2.6106088608       -0.3427866822
 O          3.9458693575        0.8181988582        1.2106621040
 C          2.0045268381        2.3298114560        0.1940897930
 C          1.4036269350        2.3876238553        1.4354436862
 C          0.1866198970        3.0377087129        1.5621935430
 C         -0.4042421782        3.6157400351        0.4500203076
 C          0.2063975364        3.5392673664       -0.7925259813
 C          1.4251683099        2.8944411857       -0.9248515559
 H          1.9337273675        2.8219785811       -1.8717590463
 H         -0.2611528813        3.9839240631       -1.6562948937
 H         -1.3457086603        4.1307666112        0.5560952158
 H         -0.2943299365        3.0788984928        2.5264450818
 H          1.8858238239        1.9119214037        2.2755291991
 H          4.2973501905        0.7202911619       -1.9408418712
 H          4.2492332308       -1.5144857317       -2.7537396157
 H          3.2742914804       -3.7703294433       -2.5610156215
 H          1.4876499651       -4.2236445830       -0.9402358798
 H          0.7620020741       -2.2765491784        1.8110919687
 C         -0.3554040137       -3.7564886992        0.7415117267
 C          0.2366502925       -4.9316956511        1.4578885778
 C         -1.0209275532       -4.2976522987        1.9697012517
 H         -1.9520280585       -4.8329572519        1.8593428373
 H         -0.9653212792       -3.6991790829        2.8677834945
 H          0.1666149214       -5.9061722806        0.9985380154
 H          1.1474959208       -4.7704850928        2.0148369479
 H         -0.8455815990       -3.9279388259       -0.2097988691
