  62
        -98.94469491
 C         -2.1330229991       -1.0043407380       -0.4328875705
 C         -3.1777693861       -1.2274730619        0.4984541754
 C         -4.4387490888       -0.5292944962        0.2287924506
 C         -4.5454864518        0.2595571476       -0.8559126259
 C         -5.7715892907        1.0230992643       -1.2774361226
 C         -5.9326234872        2.3803506305       -0.5790081593
 C         -6.3442393911        2.3104201720        0.8921256881
 H         -6.6316128504        3.3201111411        1.1922859757
 H         -7.2270918831        1.6780821286        0.9914639061
 C         -5.2411074556        1.8105457752        1.8354243872
 H         -4.2730650991        1.8797604798        1.3334002196
 H         -5.1918115047        2.4585767949        2.7134140429
 C         -5.4375718655        0.3803588310        2.3383866504
 H         -4.5825072039        0.1180155455        2.9664135014
 H         -6.3370187514        0.3295929604        2.9559546375
 C         -5.5488533846       -0.6706189954        1.2260815519
 H         -6.5170015698       -0.5943273199        0.7317743791
 H         -5.4637945545       -1.6607833804        1.6803613343
 H         -4.9944746224        2.9330724241       -0.6692282132
 H         -6.6995354802        2.9371379410       -1.1225044555
 H         -6.6599827375        0.4153141769       -1.1034045184
 H         -5.6746108900        1.1982846640       -2.3511108382
 O         -3.5221663234        0.4415401761       -1.7314600818
 C         -2.2876976336       -0.1629695450       -1.5345839740
 O         -1.4417325637        0.1189120692       -2.4047414146
 O         -3.0617229587       -1.9774289072        1.5037066102
 C         -0.7938636914       -1.6786443053       -0.1836675938
 C          0.2126782863       -0.6122306946        0.1692401207
 C          0.1643585511       -0.0374462787        1.4369731334
 C          1.0327867918        0.9787704950        1.7868053933
 C          1.9674229729        1.4464129433        0.8791442205
 C          2.0244444633        0.8788314756       -0.3865538100
 C          1.1602837719       -0.1532021394       -0.7317102447
 H          1.2079021055       -0.5731469231       -1.7236977225
 N          2.9681551605        1.3497367428       -1.3128376666
 S          4.5332701467        1.6176903149       -0.7931686735
 O          4.6124317238        2.8867036664       -0.1128181019
 O          5.3543048464        1.4835671942       -1.9759090468
 C          4.8722251933        0.2952007840        0.3558596451
 C          4.8462230195       -1.0007681349       -0.1204439946
 C          5.0728799727       -2.0439509808        0.7621445916
 C          5.3180283168       -1.7750630720        2.1002690348
 C          5.3448060786       -0.4685824231        2.5621382598
 C          5.1184957916        0.5789802083        1.6834876323
 H          5.1304886473        1.6089959030        2.0006277404
 H          5.5376401904       -0.2623035454        3.6026030322
 H          5.4903261789       -2.5896083473        2.7859608235
 H          5.0544172039       -3.0610657326        0.4048825510
 H          4.6591339306       -1.1746770462       -1.1678456603
 H          2.9388568010        0.8835653258       -2.2069099853
 H          2.6398879987        2.2517548155        1.1261914075
 H          0.9807857271        1.4159489177        2.7723244713
 H         -0.5750874925       -0.3933768604        2.1408488169
 H         -0.9494309071       -2.3072418962        0.7037429365
 C         -0.3804784592       -2.5629661361       -1.3403486375
 C          0.6956735582       -3.5857291143       -1.1346051608
 C         -0.7282548177       -4.0197570854       -1.3065875859
 H         -1.0146434944       -4.5012301284       -2.2296899340
 H         -1.2604416671       -4.3863000466       -0.4411600628
 H          1.3901118051       -3.7745873082       -1.9390149208
 H          1.1299622759       -3.6565304672       -0.1490737260
 H         -0.4357304523       -2.0654471941       -2.3012528764
