  62
        -98.93490638
 C         -2.2858624802       -0.8687494262       -0.1206375088
 C         -3.5736125625       -1.2611418918        0.3107362091
 C         -4.7088491359       -0.4947449151       -0.2313884822
 C         -4.4651766281        0.5083564765       -1.0928455009
 C         -5.4657927588        1.4429794330       -1.7149066906
 C         -5.6064056052        2.7252313903       -0.8767932222
 C         -6.6333882877        2.6478372953        0.2523701081
 H         -7.6374954405        2.6365647192       -0.1766631537
 H         -6.5385571820        3.5635196805        0.8405222191
 C         -6.4878950344        1.4450128352        1.1881339684
 H         -6.9970206046        1.6849485476        2.1236012119
 H         -5.4337555106        1.2893193395        1.4248450967
 C         -7.0902374004        0.1552337420        0.6113292402
 H         -7.7003825363        0.4044219930       -0.2565479849
 H         -7.7643027669       -0.2890710931        1.3465257790
 C         -6.0723726471       -0.9306407317        0.2321395927
 H         -6.5099074939       -1.5780389694       -0.5350045680
 H         -5.8773698186       -1.5663884569        1.1015117391
 H         -5.8920879850        3.5459057364       -1.5379293881
 H         -4.6222618877        2.9651254715       -0.4656400008
 H         -6.4247247111        0.9503795623       -1.8450472173
 H         -5.0707303376        1.7111764314       -2.6969400941
 O         -3.2064017110        0.8506611474       -1.4865887221
 C         -2.0894974391        0.1831344129       -1.0142537342
 O         -1.0065602495        0.6130217781       -1.4573341061
 O         -3.7671810786       -2.2046346811        1.1244866727
 C         -1.0740536832       -1.6170886123        0.4037561543
 C         -0.1260412094       -0.6551857051        1.0754794797
 C         -0.6201793057        0.1828406693        2.0724623191
 C          0.2045087052        1.0944560448        2.7008123976
 C          1.5383333893        1.1923861149        2.3450552101
 C          2.0464868243        0.3504858251        1.3634097027
 C          1.2169817572       -0.5751447438        0.7439420445
 H          1.6320385592       -1.2114943760       -0.0179864819
 N          3.4146547589        0.4006643600        1.0322651218
 S          3.9238364763        0.3102793769       -0.5748129104
 O          3.4371756629        1.4479374635       -1.3247872361
 O          3.6179247809       -0.9933128538       -1.1042431471
 C          5.6848313487        0.4517834454       -0.3255404762
 C          6.3322384770        1.6345136667       -0.6264890126
 C          7.6976377941        1.7269905944       -0.4045903991
 C          8.3874726822        0.6420673396        0.1144755979
 C          7.7236463294       -0.5392603981        0.4115471529
 C          6.3594380204       -0.6385154946        0.1906416969
 H          5.8031414390       -1.5375255623        0.3982401672
 H          8.2638973078       -1.3814068056        0.8130305930
 H          9.4496688210        0.7165620895        0.2862343888
 H          8.2165903211        2.6428903209       -0.6373843141
 H          5.7555809227        2.4490870797       -1.0346431108
 H          3.8748246530        1.1875076330        1.4727230911
 H          2.1808780150        1.9143519204        2.8264777054
 H         -0.1940526715        1.7419486948        3.4675603432
 H         -1.6661054060        0.1137081098        2.3401598175
 H         -1.4635435864       -2.3083359419        1.1662210249
 C         -0.4349197186       -2.4272825227       -0.7036957708
 C          0.3373209493       -3.6696358732       -0.3783519125
 C         -1.0011533801       -3.7719293349       -1.0440776523
 H         -1.0424394137       -4.0653206451       -2.0823490385
 H         -1.8400636508       -4.1174969127       -0.4577330034
 H          1.2216418890       -3.8882674011       -0.9579199338
 H          0.4092315249       -3.9530874934        0.6607945396
 H         -0.0840286896       -1.8099203682       -1.5245585262
