  62
        -98.93759296
 C         -2.2529196920        0.7828993397       -0.0647205506
 C         -3.5726193147        1.2074842659       -0.3670310955
 C         -4.6556638290        0.4965015053        0.3203726920
 C         -4.3600139753       -0.4989934215        1.1752784986
 C         -5.3488906246       -1.3001312676        1.9781322726
 C         -5.9676796235       -2.4774226364        1.2119977539
 C         -6.9821597247       -2.0909902023        0.1349736617
 H         -7.4924182719       -3.0074821812       -0.1677698870
 H         -7.7326101506       -1.4276207606        0.5659445765
 C         -6.3658006326       -1.4355993750       -1.1088431663
 H         -5.2913862130       -1.6328830531       -1.1292535876
 H         -6.7908955090       -1.8880390515       -2.0075924982
 C         -6.5939932715        0.0726233960       -1.2096546381
 H         -7.6614149740        0.2751200585       -1.3212507012
 H         -6.0862847051        0.4372362170       -2.1061895917
 C         -6.0684769589        0.8728613649       -0.0105743489
 H         -6.0767827965        1.9329292943       -0.2755957140
 H         -6.7141640198        0.7227442524        0.8544071130
 H         -5.1619780645       -3.0622119162        0.7620458674
 H         -6.4709056362       -3.1132803939        1.9440373357
 H         -4.8023286068       -1.6969642445        2.8364021779
 H         -6.1404935738       -0.6447729925        2.3426075711
 O         -3.0828532962       -0.8915325015        1.4244028594
 C         -1.9997422513       -0.2851165692        0.7969828491
 O         -0.9021643819       -0.7930231584        1.0951705724
 O         -3.8317685715        2.1369348134       -1.1764524721
 C         -1.1107726041        1.5000150820       -0.7610423423
 C         -0.1137232728        0.5066582629       -1.3025245386
 C         -0.5439766093       -0.4212477048       -2.2477505199
 C          0.3261175961       -1.3646773730       -2.7568447847
 C          1.6447722169       -1.3985811770       -2.3394126193
 C          2.0894055403       -0.4673783394       -1.4081454578
 C          1.2117988274        0.4798982711       -0.8993495681
 H          1.5726848950        1.1718234744       -0.1583819953
 N          3.4420874601       -0.4548014242       -1.0230429835
 S          3.9282140547        0.0454536658        0.5112916094
 O          3.3452088629       -0.7871766912        1.5393367744
 O          3.7180619075        1.4659261305        0.6335285553
 C          5.6768813584       -0.2850137226        0.3777691664
 C          6.2072553019       -1.4162889857        0.9678250569
 C          7.5634862569       -1.6702426391        0.8338588240
 C          8.3615529363       -0.7948269675        0.1131793845
 C          7.8152712867        0.3376793440       -0.4726386950
 C          6.4607161731        0.5979696972       -0.3408338957
 H          5.9940324663        1.4690612872       -0.7699641025
 H          8.4395887963        1.0176508147       -1.0294698373
 H          9.4164338702       -0.9946627214        0.0102045340
 H          7.9910015003       -2.5478989003        1.2914062812
 H          5.5492597143       -2.0640063944        1.5248477465
 H          3.9201685657       -1.3093680151       -1.2758497178
 H          2.3237399459       -2.1410633839       -2.7307488801
 H         -0.0245841908       -2.0852871204       -3.4806013963
 H         -1.5780459621       -0.4010189305       -2.5655716707
 H         -1.5876771313        2.0031375379       -1.6197474140
 C         -0.4665784426        2.5943542807        0.0766556931
 C         -1.2308595384        3.3155222518        1.1449759004
 C         -0.1108136483        2.3934906492        1.5181839213
 H          0.8159359743        2.8166467503        1.8792432192
 H         -0.3488490555        1.4397898715        1.9638275431
 H         -1.0806640730        4.3790945112        1.2531414301
 H         -2.2428590863        2.9930880577        1.3427017425
 H          0.2224512150        3.1976167425       -0.5075164604
