  62
        -98.94037442
 C         -2.1776225890       -0.6920358409        0.2002204951
 C         -3.0080431227       -0.0091347718        1.1247126994
 C         -3.8519979047        1.0598041809        0.5749598067
 C         -3.7451274705        1.3738195428       -0.7288132343
 C         -4.5850684875        2.3961032467       -1.4367071555
 C         -5.8487153574        1.7578415776       -2.0308379511
 C         -6.6212870142        0.8812871422       -1.0449556578
 H         -6.0125888713        0.0112769160       -0.7877688946
 H         -7.5068017286        0.5098807321       -1.5650892688
 C         -7.0485028204        1.5984524997        0.2433837241
 H         -8.0876853108        1.3415326788        0.4591784375
 H         -7.0054397391        2.6784551884        0.0980408900
 C         -6.2311659660        1.2216606659        1.4805460950
 H         -6.1964591613        0.1335946002        1.5799523102
 H         -6.7467441952        1.6132736151        2.3614979043
 C         -4.7934471605        1.7550913943        1.5175749766
 H         -4.3978934238        1.5766681200        2.5220189061
 H         -4.7956441630        2.8319550947        1.3362872000
 H         -5.5560757070        1.1389465855       -2.8821679665
 H         -6.4980580798        2.5549106697       -2.3973433419
 H         -3.9925822192        2.8286951948       -2.2445760835
 H         -4.8575129329        3.1836224375       -0.7366420765
 O         -2.8772820164        0.7548988268       -1.5671620174
 C         -2.0760311259       -0.2958558411       -1.1346141578
 O         -1.3371841795       -0.7610134794       -2.0203482825
 O         -3.0377234784       -0.2792675659        2.3560711738
 C         -1.3222339671       -1.8280955825        0.7306806740
 C          0.1070037968       -1.6713545211        0.2744987234
 C          0.8053541873       -2.6429504127       -0.4287471055
 C          2.1213643270       -2.4279104558       -0.8004515603
 C          2.7669591877       -1.2478711432       -0.4830640229
 C          2.0792581575       -0.2692015049        0.2232095290
 C          0.7651350194       -0.4914133357        0.6021857252
 H          0.2292163660        0.2725372414        1.1539930964
 N          2.7236201445        0.9418781816        0.5364752636
 S          4.2046890832        0.8618207456        1.3245842241
 O          4.3017663471       -0.3222250882        2.1470117205
 O          4.3381996531        2.1302052779        2.0080193561
 C          5.3948513006        0.7867090623        0.0030750991
 C          5.3726570559        1.7846153013       -0.9514532666
 C          6.2983167845        1.7448430391       -1.9818313087
 C          7.2270428825        0.7161206223       -2.0378627468
 C          7.2388138208       -0.2758147306       -1.0692999599
 C          6.3146923135       -0.2427666998       -0.0365345185
 H          6.2810265869       -0.9953092580        0.7349862398
 H          7.9619559195       -1.0741460859       -1.1144884429
 H          7.9459617754        0.6878165121       -2.8413562003
 H          6.2919935978        2.5142988297       -2.7369944379
 H          4.6367104354        2.5671364452       -0.8702238230
 H          2.1210814886        1.6150835714        0.9874720141
 H          3.7888967123       -1.0750685379       -0.7784617613
 H          2.6498973385       -3.1897045338       -1.3529601158
 H          0.3147195916       -3.5616125681       -0.7044885614
 H         -1.3372521479       -1.6887661283        1.8255597880
 C         -1.8941546696       -3.2134759249        0.4681989406
 C         -3.3664254950       -3.4176998336        0.2752558061
 C         -2.4253613616       -3.6227079443       -0.8717206982
 H         -2.2429165977       -4.6330422400       -1.2076697363
 H         -2.4049591121       -2.8888825230       -1.6617165943
 H         -3.8282739226       -4.2826159337        0.7273656407
 H         -3.9968522664       -2.5401431782        0.2690125320
 H         -1.3777039581       -3.9777569261        1.0410476152
