  62
        -98.94703091
 C         -2.2234345899       -0.7077207037       -0.4918327979
 C         -1.4710746212        0.2901889607       -1.1560981698
 C         -1.8912078817        1.6802849801       -0.9244700729
 C         -2.9233267162        1.9352841960       -0.1022314087
 C         -3.4216897841        3.3039022716        0.2592457357
 C         -2.7357257303        3.8359985291        1.5246520643
 C         -1.2107497233        3.7253702019        1.5010532938
 H         -0.8383474939        4.1777654674        2.4234084597
 H         -0.9180344954        2.6723646531        1.5271946623
 C         -0.5410396131        4.3994484553        0.2955169610
 H         -1.2277958161        5.1127459628       -0.1629994139
 H          0.3258105982        4.9616577895        0.6494249492
 C         -0.0337191466        3.4187648543       -0.7632641963
 H          0.5442667432        2.6336184516       -0.2691111085
 H          0.6417117391        3.9569157244       -1.4342356499
 C         -1.1166963394        2.7595458149       -1.6276983448
 H         -1.7909880600        3.5239517656       -2.0200615890
 H         -0.6206180940        2.2732772738       -2.4726339378
 H         -3.0224375970        4.8812565460        1.6572217807
 H         -3.1051444023        3.2706346870        2.3835353272
 H         -3.2435747770        3.9808802036       -0.5741094142
 H         -4.4962164161        3.2398874430        0.4405685589
 O         -3.6203973380        0.9552233175        0.5277374188
 C         -3.2807001957       -0.3751364384        0.3607067825
 O         -3.9971646803       -1.1675688751        1.0070982709
 H          0.5476387527       -1.1468889211       -0.2371622327
 C          0.3313373874       -1.9066960700        0.4936773628
 C         -0.8864451896       -2.5711797815        0.4527802906
 C         -1.1433456133       -3.5581102184        1.3962688328
 C         -0.2072971479       -3.8579587477        2.3701872919
 C          0.9826358815       -3.1573758449        2.4388529267
 C          1.2493330634       -2.1663273427        1.4992437129
 N          2.4409286387       -1.4293706937        1.5571854583
 S          2.4588436743        0.2371821066        1.3114571768
 O          3.3135606810        0.7530648318        2.3637253980
 O          1.1244678382        0.7789254377        1.2562374673
 C          3.3252123849        0.4097079400       -0.2357053672
 C          2.6428696080        0.5349468145       -1.4280338199
 C          3.3703697397        0.6413885542       -2.6045643287
 C          4.7552628211        0.6182448194       -2.5722670434
 C          5.4263514599        0.4911485465       -1.3650274184
 C          4.7069776214        0.3856182356       -0.1868814560
 H          5.1868542870        0.3003021212        0.7740274477
 H          6.5040542304        0.4745320669       -1.3394927479
 H          5.3132547251        0.7011145431       -3.4917289138
 H          2.8419162783        0.7387976587       -3.5395539390
 H          1.5636736856        0.5465594397       -1.4418846185
 H          3.0332266976       -1.6699719976        2.3389532099
 H          1.6999616974       -3.3680426152        3.2180419361
 H         -0.4158972106       -4.6282546731        3.0972977351
 H         -2.0911774467       -4.0757600637        1.3764597071
 C         -1.9220343958       -2.1971418998       -0.5819166695
 H         -2.8580818552       -2.7064341109       -0.3130980754
 C         -1.5041594088       -2.6651603445       -1.9615400009
 C         -1.7161547609       -4.1004075195       -2.3347258879
 C         -2.5570770295       -3.0300775696       -2.9622243007
 H         -2.3901481452       -2.7788221262       -3.9986618888
 H         -3.5894094809       -2.9455449011       -2.6541793683
 H         -0.9692519584       -4.5891176720       -2.9410434130
 H         -2.1810176313       -4.7454868059       -1.6045246914
 H         -0.6154434170       -2.1734652481       -2.3326844268
 O         -0.4962062193        0.0604344900       -1.9207747322
