  62
        -98.94075120
 C         -2.3392317992       -1.0496711715       -0.0412285095
 C         -2.0823713252        0.2503609043       -0.5406457530
 C         -2.8353222558        1.3402373991        0.0947965933
 C         -3.6668598515        1.0807339682        1.1189394404
 C         -4.4778502092        2.0904339719        1.8847489119
 C         -5.8089240041        2.4600821770        1.2153529920
 C         -5.6898798219        3.3358890922       -0.0325817764
 H         -5.0754177011        4.2076215496        0.1944754209
 H         -6.6933924202        3.6964368314       -0.2669336227
 C         -5.1258559717        2.6119138766       -1.2630117692
 H         -5.7354229016        2.8511303942       -2.1372146598
 H         -5.1919118149        1.5319716124       -1.1123649098
 C         -3.6810951387        2.9755964467       -1.6053270007
 H         -3.6250744089        4.0293965183       -1.8869837707
 H         -3.3726273302        2.3789109565       -2.4673650358
 C         -2.6808421408        2.7203141571       -0.4702933064
 H         -2.8018641670        3.4670349431        0.3142184289
 H         -1.6692732357        2.8021646620       -0.8756794740
 H         -6.4057908420        2.9983382752        1.9552108913
 H         -6.3409807452        1.5393102314        0.9653659514
 H         -4.6937522922        1.6410380264        2.8565503849
 H         -3.8850698133        2.9917732121        2.0440711323
 O         -3.8545895179       -0.1760786183        1.6015205447
 C         -3.2171599682       -1.2613332443        1.0275205805
 O         -3.5100782861       -2.3559668511        1.5494125664
 H          0.4863931030       -0.7508765806       -1.1004929755
 C          0.7208360284       -1.5448318703       -0.4067236337
 C         -0.2755804955       -2.4363621279       -0.0359158941
 C          0.0326014270       -3.4296533748        0.8861554131
 C          1.3067756671       -3.5264841905        1.4178852439
 C          2.2982943943       -2.6366607288        1.0440563728
 C          1.9954283685       -1.6331682016        0.1332685955
 N          2.9942539659       -0.7091957578       -0.2579949043
 S          3.5912129761        0.2963788612        0.9631751930
 O          4.1710978994       -0.5253322234        1.9945941208
 O          2.5702276379        1.2299395010        1.3929356218
 C          4.8774993724        1.1529898829        0.0765587216
 C          6.0820550439        0.5061897415       -0.1225104388
 C          7.0775211838        1.1507101021       -0.8390430085
 C          6.8527586581        2.4236627208       -1.3421918406
 C          5.6386683185        3.0600772852       -1.1335596678
 C          4.6379995705        2.4198049109       -0.4191074293
 H          3.6808999615        2.8787333949       -0.2276886640
 H          5.4669703815        4.0503725428       -1.5238875317
 H          7.6290638826        2.9242646549       -1.8989626123
 H          8.0234634685        0.6601287093       -1.0025614547
 H          6.2140534989       -0.4783746346        0.2941517432
 H          2.6438256747       -0.1090762191       -0.9956003453
 H          3.2878828035       -2.6911896220        1.4663928141
 H          1.5307832799       -4.3032308455        2.1336108862
 H         -0.7415527384       -4.1155641818        1.1994854126
 C         -1.6740274039       -2.3039363541       -0.5907553892
 H         -2.2657726252       -3.1445482820       -0.2046595877
 C         -1.6844861745       -2.3669442595       -2.1056108227
 C         -1.4908447001       -3.6923225234       -2.7761328109
 C         -2.8337596576       -3.0275684276       -2.8027598422
 H         -3.1840364949       -2.6044808282       -3.7323057027
 H         -3.6204439340       -3.4409142846       -2.1881526930
 H         -1.3668281466       -4.5579588327       -2.1430987018
 H         -0.9163721932       -3.7285730256       -3.6888466407
 H         -1.2545920444       -1.4943595240       -2.5785585301
 O         -1.2735240786        0.5179828859       -1.4698610433
