  62
        -98.94013198
 C          1.6913435395        1.3841143714        0.4087151399
 C          1.3304312201        0.3189195013       -0.4473955102
 C          1.9151133106       -1.0006038485       -0.1479534602
 C          2.6968662204       -1.1488817382        0.9362757399
 C          3.3676292708       -2.3736944680        1.5226642500
 C          3.5183335915       -3.6517849178        0.7014292300
 C          4.4580261017       -3.5360504374       -0.4980645199
 H          5.4790408316       -3.4108458770       -0.1289682197
 H          4.4175050022       -4.4755693374       -1.0534100199
 C          4.1660535214       -2.3812097675       -1.4525611399
 H          4.3125597309       -1.4317262174       -0.9335552198
 H          4.9003456215       -2.4226102471       -2.2615202797
 C          2.7755699515       -2.3929416380       -2.0846383401
 H          2.5975864820       -3.3582206180       -2.5620377802
 H          2.7642276313       -1.6264433980       -2.8638811001
 C          1.6068424212       -2.0963393185       -1.1273360203
 H          0.7609363712       -1.7449075189       -1.7248727404
 H          1.2793767815       -2.9918918587       -0.6037388204
 H          3.9338292917       -4.4056100477        1.3759353800
 H          2.5429384517       -4.0134448182        0.3891259698
 H          4.3568987006       -2.0418186376        1.8546553002
 H          2.8006178808       -2.6103429182        2.4304913699
 O          2.9712399499       -0.1029931181        1.7712474301
 C          2.4759435194        1.1672210717        1.5410243400
 O          2.7994820589        2.0074065818        2.4060317101
 H         -0.6373432708        1.4698389804        1.6947499395
 C         -1.1163322608        1.9376366002        0.8459296194
 C         -0.3563062510        2.6803326306       -0.0502370304
 C         -0.9967268110        3.2700724904       -1.1319353005
 C         -2.3581493409        3.0993450298       -1.3181405407
 C         -3.1011116908        2.3206138395       -0.4501732809
 C         -2.4681445807        1.7278641097        0.6365553892
 N         -3.1679943405        0.8963538993        1.5379683890
 S         -2.7229278999       -0.7197192205        1.5782084390
 O         -3.5907264498       -1.3240427209        2.5672115388
 O         -1.3068696598       -0.8371821899        1.8145735092
 C         -3.1559996593       -1.3431637406       -0.0370467411
 C         -4.3266992390       -2.0646447111       -0.1755803614
 C         -4.7010200086       -2.5033758711       -1.4350695814
 C         -3.9065741185       -2.2054626707       -2.5322108613
 C         -2.7387460688       -1.4752985403       -2.3762228010
 C         -2.3544361692       -1.0356357902       -1.1181380409
 H         -1.4471283795       -0.4683724998       -0.9768281008
 H         -2.1165806888       -1.2373201900       -3.2242110609
 H         -4.1977614582       -2.5440593408       -3.5140794914
 H         -5.6084742583       -3.0726113715       -1.5568138216
 H         -4.9098852291       -2.2728410813        0.7069945585
 H         -4.1734664105        0.9550663489        1.4461316988
 H         -4.1570000607        2.1637151590       -0.6124797111
 H         -2.8423367010        3.5613194097       -2.1649176508
 H         -0.4274312611        3.8438936407       -1.8444875703
 C          1.1250530489        2.7820170512        0.2216547399
 H          1.2524725986        3.2713009812        1.2021950099
 C          1.8750259388        3.6338205816       -0.7915068199
 C          3.3197155989        3.3745743722       -1.0960568597
 C          2.2752416492        3.1068876018       -2.1354868199
 H          2.2182666291        3.7722759318       -2.9845104499
 H          2.0242151897        2.0833185117       -2.3622416400
 H          3.9754035286        4.2224638225       -1.2265980395
 H          3.7894200192        2.5316816923       -0.6093947297
 H          1.5783085583        4.6770043814       -0.7428576999
 O          0.5475454202        0.4466893410       -1.4250467904
