  62
        -98.94088385
 C          1.8490995142        0.7319975111        0.5527588319
 C          2.3092982500       -0.0269316667       -0.5520881352
 C          3.4440304028       -0.9218224213       -0.2787410067
 C          3.9280664528       -1.0364515825        0.9702045863
 C          5.0698519076       -1.9150549035        1.4035721057
 C          6.4540149027       -1.2889298589        1.1843734894
 C          6.9135335595       -1.2185866760       -0.2725629909
 H          7.9755480235       -0.9654603045       -0.2609191738
 H          6.8191354022       -2.2040433356       -0.7299038097
 C          6.1687147069       -0.1805451587       -1.1237027204
 H          5.6565696039        0.5280978373       -0.4686606009
 H          6.8890366349        0.3921266664       -1.7120879945
 C          5.1541859213       -0.7727588992       -2.1021444324
 H          4.6623499017        0.0506463555       -2.6264222594
 H          5.6739482782       -1.3808359077       -2.8457927250
 C          4.0674067278       -1.6317622274       -1.4422503177
 H          4.4835980574       -2.5885207115       -1.1272184772
 H          3.2805261971       -1.8171209105       -2.1778112359
 H          6.4559832799       -0.2852757693        1.6160813282
 H          7.1753561144       -1.8910604663        1.7416124144
 H          4.9373483783       -2.0927560911        2.4731173957
 H          5.0150144965       -2.8718875490        0.8834454752
 O          3.3972455740       -0.3576960878        2.0225866918
 C          2.3628708439        0.5462900836        1.8385353854
 O          1.9798053074        1.1024261852        2.8878714574
 O          1.8133771852        0.0280325815       -1.7056804518
 C          0.7167941250        1.7353760025        0.4151986464
 C         -0.4191034879        1.1263428879       -0.3701077467
 C         -0.9317718903        1.6698295650       -1.5397643824
 C         -1.9748534090        1.0463699072       -2.2030841220
 C         -2.5319995870       -0.1206175020       -1.7153148578
 C         -2.0333033858       -0.6670788525       -0.5389705716
 C         -0.9943567956       -0.0372973007        0.1277989851
 H         -0.6019382333       -0.4673611241        1.0418547300
 N         -2.5977755359       -1.8483500303       -0.0287295729
 S         -4.2644527738       -1.9878038543       -0.0198444822
 O         -4.5621403504       -2.8901721663        1.0706665786
 O         -4.7262340227       -2.4027284435       -1.3210850249
 C         -4.8728834658       -0.3494577570        0.3410084420
 C         -5.6750809411        0.3055662759       -0.5708369913
 C         -6.1113045907        1.5883558600       -0.2799629010
 C         -5.7365875936        2.1917834325        0.9102043975
 C         -4.9330758258        1.5190192757        1.8183381289
 C         -4.4956510239        0.2359274922        1.5334778722
 H         -3.8743236667       -0.3152809621        2.2213724975
 H         -4.6425702401        1.9892748350        2.7441674718
 H         -6.0724140466        3.1919948232        1.1339419358
 H         -6.7378884578        2.1129074534       -0.9830391088
 H         -5.9406090165       -0.2001236938       -1.4848430895
 H         -2.1956881087       -2.1555520962        0.8440745481
 H         -3.3299203447       -0.6276006821       -2.2332002871
 H         -2.3546194244        1.4719227448       -3.1192842825
 H         -0.4964347283        2.5657510963       -1.9499256722
 H          0.3587154668        1.8990969749        1.4451819872
 C          1.1553606424        3.0949672532       -0.1090135493
 C          2.5504967431        3.5944978655        0.1172123342
 C          2.0949631900        3.2451308197       -1.2660421060
 H          1.9220706368        4.0503133973       -1.9651889081
 H          2.4728059061        2.3447686886       -1.7231966659
 H          2.6883377759        4.6352682070        0.3693342529
 H          3.2460374008        2.9315000997        0.6117201828
 H          0.3648552171        3.8340967095       -0.0246311209
