  62
        -98.93429944
 C         -2.3387910146       -1.1900660843        0.0721019231
 C         -3.2657205894       -0.5256043204        0.9100988539
 C         -4.1291651543        0.4974541178        0.2882726619
 C         -3.9658318766        0.7691300976       -1.0196971781
 C         -4.6894822583        1.7895023703       -1.8573374779
 C         -4.1981226764        3.2230558522       -1.5980810475
 C         -3.9933660175        3.5769646703       -0.1272387587
 H         -3.2805075326        2.8777394919        0.3144385470
 H         -3.5394710657        4.5706942099       -0.0846216604
 C         -5.2642687971        3.6083235325        0.7185153063
 H         -4.9813882113        3.9537603757        1.7163637367
 H         -5.9558347170        4.3416592882        0.2977351335
 C         -6.0019925055        2.2763292327        0.8689852403
 H         -6.5696463963        2.0393356015       -0.0267883268
 H         -6.7313991155        2.3983999462        1.6751076581
 C         -5.1171798868        1.0966209571        1.2600712457
 H         -5.7623489387        0.2670359390        1.5746490920
 H         -4.5382916442        1.3626802464        2.1521452041
 H         -4.9097186674        3.9184666158       -2.0460942617
 H         -3.2385895947        3.3474000637       -2.1059315428
 H         -4.4887588797        1.5373331593       -2.9008706277
 H         -5.7607340658        1.7112477239       -1.6977126709
 O         -3.0258029905        0.1387918557       -1.7786051539
 C         -2.1888118056       -0.8409412934       -1.2705689688
 O         -1.3822266826       -1.2968621089       -2.1007193381
 O         -3.3668383716       -0.7663838061        2.1444834220
 C         -1.4419551975       -2.2401220307        0.7018116422
 C         -0.0039634937       -1.9933009504        0.3179509280
 C          0.8019399677       -2.9332426589       -0.3090722566
 C          2.1147213985       -2.6291588724       -0.6260218326
 C          2.6507053841       -1.3903442674       -0.3289509119
 C          1.8555908094       -0.4431934693        0.3036876946
 C          0.5448392358       -0.7544095793        0.6287394478
 H         -0.0756502095       -0.0147023527        1.1217316110
 N          2.3839026880        0.8269260468        0.5931792814
 S          3.8664793785        0.9203721520        1.3734160978
 O          4.0892173203       -0.2247097394        2.2257556995
 O          3.8684792412        2.2134306986        2.0226143805
 C          5.0530379150        0.9366249779        0.0466962842
 C          6.0862907173        0.0202062537        0.0347473654
 C          7.0044440427        0.0597703177       -1.0030799098
 C          6.8744337204        1.0103613651       -2.0039051627
 C          5.8323654132        1.9253371054       -1.9756587212
 C          4.9117903179        1.8919601190       -0.9405299900
 H          4.0894547352        2.5854474446       -0.8809638317
 H          5.7338101363        2.6627209308       -2.7560232989
 H          7.5893521627        1.0388246877       -2.8109550528
 H          7.8151994666       -0.6504876167       -1.0270393885
 H          6.1434718430       -0.7045664300        0.8311610690
 H          1.7186220768        1.4599646963        1.0123836976
 H          3.6698285673       -1.1490916087       -0.5830496025
 H          2.7277261765       -3.3672040336       -1.1204539504
 H          0.3978010187       -3.8972451987       -0.5698575731
 H         -1.5331257777       -2.0581339806        1.7866284018
 C         -1.8942342869       -3.6738857553        0.4698101225
 C         -3.3335297941       -3.9974781809        0.2050546775
 C         -2.3142681888       -4.1765906500       -0.8777397198
 H         -2.0380822351       -5.1828475347       -1.1571747140
 H         -2.3019436258       -3.4759327611       -1.6974049536
 H         -3.7548314180       -4.8765691379        0.6692949095
 H         -4.0260401431       -3.1720659564        0.1243951738
 H         -1.3570089164       -4.3726868109        1.1040048034
