  62
        -98.94756678
 C         -0.8114082797       -1.1492789707        0.5963203996
 C         -1.2856944796       -0.7714559203       -0.6829717403
 C         -2.2079086996        0.3705533997       -0.7047487500
 C         -2.5070954696        1.0108820294        0.4395068601
 C         -3.4684430197        2.1591529293        0.5836847304
 C         -4.9340137797        1.7200349293        0.7144339302
 C         -5.5783873296        1.2185824797       -0.5787918500
 H         -6.6536310596        1.1595262296       -0.3982467801
 H         -5.4213229295        1.9521087699       -1.3701141798
 C         -5.0822484796       -0.1572647502       -1.0450101504
 H         -5.9372202196       -0.7720579601       -1.3358943206
 H         -4.5897524096       -0.6686394004       -0.2145532805
 C         -4.1268258795       -0.1186135698       -2.2380768903
 H         -3.8179246395       -1.1431147598       -2.4603054106
 H         -4.6498644394        0.2724550704       -3.1135666402
 C         -2.8605935795        0.7178296501       -2.0084316200
 H         -2.1495521495        0.4881470003       -2.8054006500
 H         -3.0991515195        1.7799035901       -2.0447674997
 H         -5.5034005697        2.5835317092        1.0661316104
 H         -5.0016098397        0.9441983291        1.4806093100
 H         -3.1872235697        2.6930551091        1.4930759206
 H         -3.3709467596        2.8327895296       -0.2667482894
 O         -1.9520620797        0.6743196590        1.6350311501
 C         -1.1145828597       -0.4235196410        1.7469331998
 O         -0.7072979698       -0.6441723713        2.9069731298
 H          1.6053653103       -0.2485457306        0.4461135000
 C          1.9692488204       -1.0670361905       -0.1580781002
 C          1.2836130004       -2.2747749305       -0.1397608506
 C          1.7687787004       -3.3267492702       -0.9058402409
 C          2.9048094405       -3.1610448300       -1.6789244408
 C          3.5820544105       -1.9562030500       -1.6971510704
 C          3.1076486104       -0.8984774302       -0.9282996301
 N          3.7487259704        0.3457763398       -0.9508458397
 S          3.6359413804        1.4153764294        0.3193974806
 O          4.6696903604        2.3929689095        0.0494861209
 O          3.7246963803        0.7495747590        1.5985508604
 C          2.0499551504        2.1976074095        0.1227408307
 C          1.2916495703        2.4719547691        1.2430638208
 C          0.0946903803        3.1529129392        1.0928436509
 C         -0.3222217096        3.5416436896       -0.1702424790
 C          0.4430818905        3.2455128099       -1.2873021291
 C          1.6447510604        2.5720097798       -1.1426886192
 H          2.2684094305        2.3316010901       -1.9875217392
 H          0.1091051105        3.5412844302       -2.2686246790
 H         -1.2476356796        4.0831620096       -0.2818773689
 H         -0.5051404897        3.3704987389        1.9622204909
 H          1.6434135103        2.1385431789        2.2073975007
 H          4.6321037105        0.3846035299       -1.4358826196
 H          4.4664180205       -1.8282420898       -2.3022422603
 H          3.2697055605       -3.9839743399       -2.2746583710
 H          1.2563040604       -4.2746543402       -0.9025382412
 C          0.0622771203       -2.3813555107        0.7396547993
 H          0.4017263803       -2.3967707510        1.7865906693
 C         -0.7636867397       -3.6245997206        0.4751406789
 C         -0.4453712297       -4.9114223808        1.1734787385
 C         -1.6677729497       -4.1336062209        1.5558079587
 H         -2.6364130997       -4.5225405709        1.2795870585
 H         -1.6636680098       -3.5995177112        2.4953374689
 H         -0.5781759197       -5.8380650307        0.6355999083
 H          0.3869385002       -4.9147879210        1.8611831586
 H         -1.1284512996       -3.6702333303       -0.5448460211
 O         -0.9709853195       -1.3645139000       -1.7466302305
