  62
        -98.94490707
 C         -2.5444167970       -0.1775405007        0.4638951474
 C         -2.4606783890        0.5208063909       -0.7643916435
 C         -2.2851212280        1.9757890729       -0.6631471408
 C         -2.2067596996        2.5482656217        0.5516295661
 C         -2.0084775250        4.0157312583        0.7975978724
 C         -0.5239886607        4.3768208903        0.9375327463
 C          0.3639977015        3.8333776100       -0.1823302427
 H          1.3710842582        4.2185388087       -0.0051848361
 H          0.4275903761        2.7456020036       -0.0981695591
 C         -0.0843284790        4.2162964494       -1.5994420823
 H          0.7970756312        4.5096723724       -2.1735028416
 H         -0.7476636737        5.0814071798       -1.5580591952
 C         -0.7653224558        3.0889251548       -2.3779227012
 H         -0.8012928836        3.3758611321       -3.4324806453
 H         -0.1624249603        2.1799227918       -2.3024428053
 C         -2.1980774688        2.7510183543       -1.9471785955
 H         -2.7921770386        3.6655629610       -1.8885958559
 H         -2.6339541736        2.1045479994       -2.7145766214
 H         -0.1564866235        3.9737262257        1.8844056744
 H         -0.4405544539        5.4651916302        0.9748534820
 H         -2.4522427220        4.5757326536       -0.0236153699
 H         -2.5232464571        4.2778283702        1.7240089493
 O         -2.2848516401        1.8430808688        1.7105849030
 C         -2.4326012508        0.4659419106        1.6945569834
 O         -2.4630136289       -0.0625843206        2.8269628670
 H         -0.1490583703       -0.8744667876        0.4724676268
 C         -0.2713087576       -1.7477921248       -0.1517792666
 C         -1.5311755333       -2.3154129590       -0.2884082034
 C         -1.6648681504       -3.4478142123       -1.0815276414
 C         -0.5620861748       -3.9829699983       -1.7254200031
 C          0.6873474125       -3.4059650540       -1.5966864809
 C          0.8305683439       -2.2680982890       -0.8084657940
 N          2.0739677929       -1.6234193194       -0.7022296752
 S          2.3777684736       -0.5723871853        0.5763356644
 O          2.1387292519       -1.2348387454        1.8409400688
 O          1.6672629599        0.6600114239        0.3485675421
 C          4.1272510011       -0.3134178524        0.3515891052
 C          5.0193626112       -1.1311828379        1.0196378704
 C          6.3782908182       -0.9462519958        0.8199706634
 C          6.8200278165        0.0472350595       -0.0409855588
 C          5.9131669533        0.8619325151       -0.7023757847
 C          4.5528193943        0.6821212432       -0.5069714020
 H          3.8105546122        1.2951345572       -0.9914174038
 H          6.2599421051        1.6360287793       -1.3676637921
 H          7.8779735259        0.1896852437       -0.1945496112
 H          7.0854342350       -1.5752767749        1.3361521008
 H          4.6298151204       -1.8813814046        1.6889762153
 H          2.8610135566       -2.2212354478       -0.9107822564
 H          1.5427377890       -3.8212603690       -2.1068063470
 H         -0.6786517275       -4.8637583140       -2.3385730179
 H         -2.6319984877       -3.9092106815       -1.1973432827
 C         -2.6835462142       -1.6881407782        0.4607217841
 H         -2.6132223666       -2.0030451838        1.5135770982
 C         -4.0396991547       -2.0927678475       -0.0815142704
 C         -4.7293981671       -3.3191764963        0.4338856021
 C         -5.2394990967       -1.9604655177        0.8060202940
 H         -6.1669417483       -1.6175852718        0.3728121020
 H         -5.0703882242       -1.6063443652        1.8129772206
 H         -5.3124225734       -3.9110287860       -0.2555674115
 H         -4.2249818956       -3.8942125771        1.1959044775
 H         -4.1588669489       -1.8360395519       -1.1278071438
 O         -2.5376604752       -0.0409046848       -1.8888598434
