  62
        -98.93984415
 C          1.9760118504        0.8121702770       -0.2238547897
 C          2.8561756502        0.4996622497        0.8449859686
 C          3.4056304606       -0.8603219958        0.8716600902
 C          3.0261518806       -1.7351568600       -0.0769990066
 C          3.5404341174       -3.1396698158       -0.2039828878
 C          4.7747877864       -3.1992806826       -1.1149465625
 C          5.8456615231       -2.1633357193       -0.7724657185
 H          5.4483002563       -1.1645096544       -0.9670077930
 H          6.6789074507       -2.3176640376       -1.4614156749
 C          6.3572033144       -2.2325785784        0.6732276930
 H          7.4465633458       -2.1578410027        0.6626717641
 H          6.1023747641       -3.1987512261        1.1098913092
 C          5.8428788252       -1.1148184524        1.5822758341
 H          6.0117770855       -0.1467944727        1.1040723955
 H          6.4282398967       -1.1307081963        2.5053828688
 C          4.3634361307       -1.2036917390        1.9780068146
 H          4.1845601881       -0.4671016670        2.7666408312
 H          4.1479865282       -2.1961239724        2.3790637087
 H          4.4518211497       -3.0304033292       -2.1448838302
 H          5.2016681607       -4.2019236878       -1.0522867759
 H          3.7867147497       -3.5201549878        0.7855375744
 H          2.7493197553       -3.7562394169       -0.6343355397
 O          2.1593665718       -1.4146573248       -1.0693948636
 C          1.6147687076       -0.1398827614       -1.1788763429
 O          0.8566445046       -0.0129901716       -2.1605147515
 H         -0.7020907281        0.5189033461       -0.2265522389
 C         -0.8588848862        1.3792087299        0.4063447363
 C          0.1308124208        2.3439071363        0.5264854707
 C         -0.1017329331        3.4440058408        1.3442951133
 C         -1.3023764286        3.5797305618        2.0168743052
 C         -2.2909284168        2.6223074806        1.8868618202
 C         -2.0628678384        1.5089892522        1.0838192789
 N         -3.0343894362        0.5010599439        0.9898775748
 S         -3.1044022646       -0.4948848502       -0.3692923112
 O         -2.1012809050       -1.5219380483       -0.2410233332
 O         -3.0896188542        0.3020806177       -1.5747102265
 C         -4.7249384251       -1.2038443203       -0.1350882910
 C         -4.8664794546       -2.2823791425        0.7173717781
 C         -6.1306775175       -2.8105408963        0.9263887065
 C         -7.2269640587       -2.2543371924        0.2840131207
 C         -7.0696334706       -1.1738158504       -0.5708500215
 C         -5.8080485422       -0.6404312548       -0.7831848956
 H         -5.6351538360        0.1924460857       -1.4456199531
 H         -7.9226670716       -0.7456902678       -1.0720844295
 H         -8.2095131329       -2.6675857003        0.4482931494
 H         -6.2556598245       -3.6526915220        1.5877254301
 H         -3.9840159392       -2.6858704308        1.1861447613
 H         -3.9521194560        0.8045643602        1.2851726222
 H         -3.2292348375        2.7255717806        2.4098123236
 H         -1.4716901493        4.4396324898        2.6466776517
 H          0.6702252525        4.1902014060        1.4571050352
 C          1.4289314949        2.2269323356       -0.2395883865
 H          2.1781365885        2.8330953169        0.2901862310
 C          1.2405430813        2.8068958651       -1.6284060479
 C          1.3591847682        4.2863215863       -1.8330838581
 C          2.4211526505        3.3691121787       -2.3593732836
 H          2.4901243593        3.2053014751       -3.4240887179
 H          3.3749285957        3.3496991859       -1.8521761172
 H          1.6003497609        4.8960409514       -0.9759417933
 H          0.6931931405        4.7599126684       -2.5377484587
 H          0.5003588656        2.2746756267       -2.2130247202
 O          3.1760881312        1.3342344542        1.7348650837
