  62
        -98.93371762
 C         -2.5533583365       -1.1295780023        0.1522627680
 C         -3.2116684811       -0.3283876409        1.1216075631
 C         -4.3087062425        0.5144932299        0.6380482672
 C         -4.6330000250        0.4977887198       -0.6673755446
 C         -5.7488323116        1.2726010699       -1.3143598825
 C         -5.3809179062        2.7176023368       -1.6775422010
 C         -5.2529959267        3.6742220962       -0.4914409939
 H         -5.2100504431        4.6861534762       -0.8991044017
 H         -6.1503548908        3.6097456355        0.1247499431
 C         -4.0103123351        3.4403441769        0.3789389040
 H         -3.2890667562        2.8313233838       -0.1711731116
 H         -3.5268217978        4.3972483113        0.5883254903
 C         -4.2949367485        2.7735594095        1.7248661616
 H         -3.3431160223        2.6226431580        2.2408472054
 H         -4.9091955644        3.4352974877        2.3397030122
 C         -4.9973577636        1.4136190389        1.6201499178
 H         -6.0419669926        1.5507491171        1.3411764916
 H         -4.9569054146        0.9303047407        2.5994908331
 H         -4.4452459100        2.7087623569       -2.2411583704
 H         -6.1639617229        3.0960079981       -2.3386039850
 H         -6.0024945421        0.7407426554       -2.2338362228
 H         -6.6214047704        1.2715876183       -0.6603400762
 O         -3.9711764729       -0.2696755210       -1.5693007629
 C         -2.9116200174       -1.0907721839       -1.1970208857
 O         -2.4077579471       -1.7056978760       -2.1513386048
 O         -2.8999671372       -0.3247193254        2.3444164084
 C         -1.4271183929       -2.0229725812        0.6579415706
 C         -0.1051369420       -1.6249532155        0.0494242964
 C          0.3793095024       -2.0632880589       -1.1779255729
 C          1.6035817407       -1.6217843420       -1.6501546474
 C          2.3722966325       -0.7311270932       -0.9241303010
 C          1.8971042974       -0.2734307967        0.2972459190
 C          0.6742620287       -0.7253602495        0.7712335627
 H          0.3102716570       -0.3618757630        1.7243579422
 N          2.6588401161        0.6501678440        1.0360042608
 S          4.2611741323        0.2632132786        1.3597535865
 O          4.4510440671       -1.1664729556        1.4429110183
 O          4.6031546558        1.0273241556        2.5395032681
 C          5.1548188544        0.9171138873       -0.0341772710
 C          5.0057212723        2.2566829497       -0.3355931415
 C          5.7022988220        2.7810316627       -1.4126135889
 C          6.5335187987        1.9628014440       -2.1633701852
 C          6.6757715657        0.6209504065       -1.8449633089
 C          5.9810493767        0.0898278802       -0.7693577137
 H          6.0552916102       -0.9485770489       -0.4882411891
 H          7.3227607745       -0.0132651451       -2.4294740966
 H          7.0736494507        2.3735859413       -3.0017072590
 H          5.5946494298        3.8240097774       -1.6635139720
 H          4.3523626192        2.8585184430        0.2739853787
 H          2.1983097903        0.9765212339        1.8736496604
 H          3.3245862975       -0.3875825311       -1.2935663117
 H          1.9605624634       -1.9764688867       -2.6051603541
 H         -0.2113817983       -2.7237628965       -1.7867973619
 H         -1.3588708013       -1.7582773923        1.7250905762
 C         -1.8140941980       -3.4978449667        0.6535610470
 C         -1.9850360119       -4.3689257775       -0.5533800339
 C         -0.8423186429       -4.6077353470        0.3859973509
 H         -0.8755387424       -5.4802785760        1.0214294772
 H          0.1508320984       -4.3381454190        0.0615342256
 H         -2.8087832250       -5.0690257174       -0.5418384430
 H         -1.8029349958       -3.9472905275       -1.5269897559
 H         -2.5342053849       -3.6833024199        1.4473912401
