  62
        -98.93898459
 C          1.9423418030        1.3879979524        0.2934892604
 C          2.5704535473        0.7297141607       -0.7888618758
 C          3.7331956482       -0.1149489422       -0.4573846884
 C          4.1280005627       -0.2274388168        0.8246901229
 C          5.2904247754       -0.9726007199        1.4473151914
 C          6.0386979425       -2.0480740977        0.6639064126
 C          5.2190975360       -3.2991559828        0.3489723302
 H          5.8189271982       -3.9475592778       -0.2932884823
 H          5.0321583334       -3.8369083473        1.2820360001
 C          3.8679704169       -3.0532622952       -0.3184893960
 H          3.3935528887       -4.0248454194       -0.4826557844
 H          3.2203128672       -2.4926936179        0.3591594118
 C          3.9228569432       -2.3306887982       -1.6633169537
 H          2.9179407983       -2.3622583791       -2.0938482841
 H          4.5930744573       -2.8646200953       -2.3397201028
 C          4.3546527838       -0.8548719172       -1.6062502729
 H          5.4375296495       -0.7589409782       -1.5875592340
 H          3.9960279382       -0.3646329673       -2.5160235352
 H          6.4573630240       -1.6289093767       -0.2461808449
 H          6.8823017869       -2.3559017483        1.2877162679
 H          6.0092897916       -0.2029153515        1.7494685352
 H          4.9015885172       -1.4099703547        2.3724945444
 O          3.4836236715        0.4262833516        1.8365730666
 C          2.3791538468        1.2276452744        1.6058077383
 O          1.8783443053        1.7244163538        2.6357510201
 H         -0.0974241815       -0.1558876042        0.7509506050
 C         -0.6622191618        0.2107836464       -0.0979471380
 C         -0.3651778564        1.4664172296       -0.6144448502
 C         -1.1113925324        1.9315418302       -1.6889249775
 C         -2.0998124440        1.1413835294       -2.2513765878
 C         -2.3723223180       -0.1186325144       -1.7529318762
 C         -1.6474646269       -0.5840582942       -0.6624063103
 N         -1.9283865778       -1.8546101498       -0.1334718433
 S         -3.5317249985       -2.2934979075        0.0547686358
 O         -3.5398953055       -3.2332043052        1.1542407359
 O         -4.0497917690       -2.7881135264       -1.1965331990
 C         -4.3853565947       -0.7928374239        0.5061593972
 C         -5.4153594937       -0.3234471073       -0.2831748449
 C         -6.0480550591        0.8571050025        0.0722014416
 C         -5.6385871222        1.5463746301        1.2028220009
 C         -4.6042511293        1.0599825160        1.9879667299
 C         -3.9701757513       -0.1211692530        1.6390046465
 H         -3.1653571861       -0.5259012458        2.2320968631
 H         -4.2858180934        1.5968890057        2.8672421504
 H         -6.1274395922        2.4680566035        1.4761698251
 H         -6.8538954454        1.2365895421       -0.5350093897
 H         -5.6981438434       -0.8893271472       -1.1558637337
 H         -1.3801193018       -2.0952468444        0.6785077696
 H         -3.1226042587       -0.7540584402       -2.1947681440
 H         -2.6624443230        1.5105611129       -3.0949806021
 H         -0.9118488830        2.9091102935       -2.0953243068
 C          0.7311533715        2.2680747238        0.0457174639
 H          0.3745141768        2.5798617113        1.0385409043
 C          1.1341300152        3.5012300998       -0.7359554898
 C          0.3942528861        4.7907914127       -0.5497842171
 C          1.7815095408        4.6373852666       -0.0046527076
 H          2.5895946728        5.1673937529       -0.4860854955
 H          1.9059666154        4.5313940908        1.0635464991
 H          0.2514706354        5.4319410241       -1.4065025506
 H         -0.4258291838        4.8006217539        0.1519445392
 H          1.5120391596        3.2617459100       -1.7231454994
 O          2.1852054231        0.8411830200       -1.9812432954
