  62
        -98.93855420
 C         -1.2574100701       -1.1619261301       -0.8297625400
 C         -2.6260652300       -1.3475136803       -0.4792870598
 C         -3.5070342100       -0.1773282402       -0.5567327490
 C         -2.9936041201        1.0013440800       -0.9487668384
 C         -3.7544815000        2.2927125401       -1.0213538775
 C         -3.6512518797        3.0707160493        0.2976462029
 C         -3.9594583895        2.2305505186        1.5372587225
 H         -3.1793252395        1.4742469985        1.6565668919
 H         -3.8920269693        2.8934887381        2.4029379829
 C         -5.3349530995        1.5486654587        1.5199314224
 H         -5.9779826697        2.0313848191        0.7830574128
 H         -5.8031394693        1.6835818881        2.4972324426
 C         -5.2944251596        0.0434451288        1.2491774415
 H         -4.5743360195       -0.4296246516        1.9219866111
 H         -6.2796839496       -0.3700404013        1.4806624015
 C         -4.9515915300       -0.3663258403       -0.1884640888
 H         -5.1485261200       -1.4379675903       -0.2845772994
 H         -5.5993706401        0.1669695001       -0.8873119583
 H         -2.6331334897        3.4556905892        0.3957732330
 H         -4.3346379597        3.9209323094        0.2523576236
 H         -4.7974644901        2.0812928903       -1.2499220074
 H         -3.3305384302        2.8984384906       -1.8241248572
 O         -1.6923531401        1.1490517002       -1.2876109086
 C         -0.7866491502        0.0952958301       -1.2202100194
 O          0.3620942198        0.4423040703       -1.5503055494
 O         -3.0990105800       -2.4593511504       -0.1157261504
 C         -0.3994336801       -2.4100111702       -0.6847746009
 C          0.4923476101       -2.3706093709        0.5361963289
 C          0.4592539903       -3.4120361815        1.4587205583
 C          1.2648502505       -3.3846631322        2.5827192282
 C          2.1060371606       -2.3118332323        2.8187454686
 C          2.1478041104       -1.2681013018        1.9019424992
 C          1.3605203502       -1.3133065411        0.7604979894
 H          1.4011653001       -0.4971226907        0.0609049298
 N          2.9975510005       -0.1700249119        2.0935323897
 S          2.5317442505        1.3538117084        1.5769139107
 O          3.3696288706        2.2557360379        2.3453053210
 O          1.1087700005        1.5574374283        1.7316020811
 C          3.0333848001        1.4517573994       -0.1270938394
 C          4.0006772100        0.5961365896       -0.6129603701
 C          4.4019119597        0.7234962404       -1.9329607801
 C          3.8388378196        1.7019418308       -2.7367561894
 C          2.8740435097        2.5575534206       -2.2302284287
 C          2.4655363300        2.4330562798       -0.9126100187
 H          1.7021880301        3.0647094496       -0.4863660482
 H          2.4287417196        3.3130006510       -2.8578766382
 H          4.1474882494        1.7941965014       -3.7663530894
 H          5.1473714596        0.0541930306       -2.3316898506
 H          4.4109306201       -0.1626169708        0.0326740494
 H          3.4801813807       -0.1395447025        2.9794405896
 H          2.7214026308       -2.2784315128        3.7049255785
 H          1.2271558406       -4.1985966826        3.2908118477
 H         -0.2165177998       -4.2392693714        1.2964342180
 H         -1.1506932301       -3.1934799303       -0.4955851412
 C          0.3946574696       -2.9083466995       -1.8893943313
 C          0.1243837993       -2.4638695887       -3.2932451810
 C          1.4314909395       -2.1302041991       -2.6387343311
 H          2.3160542794       -2.6585686090       -2.9629635716
 H          1.6006818696       -1.1030547393       -2.3635349905
 H          0.0996625592       -3.2064296583       -4.0771160915
 H         -0.5801834407       -1.6562087286       -3.4310262204
 H          0.6186996996       -3.9654825096       -1.7705205220
