  62
        -98.94116281
 C         -1.6486108746       -0.4601088549        0.9424984762
 C         -2.8814417787       -1.0397054810        0.5555847131
 C         -4.0141338517       -0.1093445557        0.4222482284
 C         -3.8307539681        1.2023537894        0.6541606707
 C         -4.8824892616        2.2604126075        0.4917610794
 C         -4.8646190894        2.8491284722       -0.9259136042
 C         -4.8568560049        1.7949083999       -2.0330021708
 H         -4.8755883716        2.3255307548       -2.9874405598
 H         -3.9158571885        1.2412544521       -1.9920844528
 C         -6.0289836407        0.8053696949       -1.9757131636
 H         -6.8279130862        1.2124033158       -1.3547806802
 H         -6.4326554983        0.6817772821       -2.9829156888
 C         -5.6564349154       -0.5898551600       -1.4709962640
 H         -4.7951954030       -0.9640014896       -2.0302880880
 H         -6.4954777278       -1.2604506043       -1.6751712540
 C         -5.3407932147       -0.6947165650        0.0263514816
 H         -6.1490194633       -0.2437356954        0.6055576004
 H         -5.2876455460       -1.7574516204        0.2800118558
 H         -5.7368277703        3.4950295188       -1.0422425510
 H         -3.9685814423        3.4645596986       -1.0338564845
 H         -5.8591105076        1.8305811201        0.7056283033
 H         -4.6816552866        3.0577264744        1.2092541604
 O         -2.6331206962        1.7245605207        1.0211684471
 C         -1.5209210704        0.9150109557        1.1672588786
 O         -0.4871391527        1.5258621960        1.5040494173
 H          1.9814329723       -0.2772629822        0.2825293475
 C          1.5376841924       -0.9294012225       -0.4539303256
 C          0.3087416242       -1.5177911887       -0.1934999843
 C         -0.2638098080       -2.3353558387       -1.1622159135
 C          0.3912952414       -2.5603416158       -2.3588564498
 C          1.6300499563       -1.9940946853       -2.6044122276
 C          2.2076724603       -1.1706497564       -1.6450330563
 N          3.4498085696       -0.5658180235       -1.8737819446
 S          4.5248033692       -0.2953395846       -0.6227540835
 O          5.8082479259       -0.1648113859       -1.2791190380
 O          4.4324556414       -1.3187774266        0.3918653551
 C          4.0515805497        1.2874994580        0.0377411350
 C          3.8161318531        1.4259170113        1.3905739438
 C          3.4649157211        2.6709816507        1.8868508522
 C          3.3583421821        3.7508881698        1.0250092101
 C          3.6028831440        3.5968182914       -0.3312171006
 C          3.9540623067        2.3544677580       -0.8329899274
 H          4.1546174896        2.1963551017       -1.8796261039
 H          3.5177232048        4.4404795020       -0.9972217841
 H          3.0802942763        4.7176415841        1.4141151445
 H          3.2692869568        2.7915645274        2.9402533748
 H          3.9048866915        0.5588890682        2.0267586740
 H          3.9135529192       -0.8402902979       -2.7269789660
 H          2.1460081788       -2.1835415259       -3.5335474796
 H         -0.0621300839       -3.1940905507       -3.1062312843
 H         -1.2283587521       -2.7799139314       -0.9716504468
 C         -0.3700498210       -1.2612029628        1.1307648070
 H          0.2968310285       -0.6171894755        1.7201966674
 C         -0.5687692562       -2.5582675654        1.8912020309
 C          0.6335682815       -3.2365711213        2.4734251911
 C         -0.3660601343       -2.5768632225        3.3746749017
 H         -1.0106211887       -3.2015339992        3.9747794215
 H         -0.0869485618       -1.6497297758        3.8542383168
 H          0.6754460392       -4.3149076223        2.4548276863
 H          1.5936517420       -2.7603280628        2.3353647219
 H         -1.3541452952       -3.1825611325        1.4872535492
 O         -3.0565835439       -2.2661964364        0.3279806517
