  62
        -98.94515690
 C         -2.5255101070       -0.2892612773        0.0499392769
 C         -2.2252792643       -1.2993949422       -0.8932865845
 C         -1.5907470122       -2.5115816197       -0.3627530428
 C         -1.3454523796       -2.5998393577        0.9573855908
 C         -0.7053817890       -3.7782355117        1.6330861364
 C          0.8151672973       -3.6160358251        1.7515675248
 C          1.5079468956       -3.2325606238        0.4437035809
 H          1.2262191345       -2.2108736863        0.1776897247
 H          2.5828623287       -3.2180790988        0.6413507844
 C          1.2198450091       -4.1665901390       -0.7392817666
 H          2.1568201669       -4.3532061234       -1.2681322333
 H          0.8531259287       -5.1274619678       -0.3750821870
 C          0.2368786156       -3.6001966291       -1.7661663552
 H          0.5302693548       -2.5770015906       -2.0195543250
 H          0.3120636339       -4.1995307541       -2.6779340891
 C         -1.2382873061       -3.5940817652       -1.3433892783
 H         -1.5138213153       -4.5764375277       -0.9529980307
 H         -1.8410460832       -3.3964611486       -2.2349491129
 H          1.0237142253       -2.8300161730        2.4810265889
 H          1.2313875204       -4.5538180805        2.1258561376
 H         -1.1286155443       -3.8640706233        2.6357824201
 H         -0.9418369863       -4.6802028113        1.0710993657
 O         -1.6532056167       -1.6119930794        1.8354875016
 C         -2.2004331604       -0.4152861466        1.4007994898
 O         -2.3745822213        0.4282866527        2.3013990429
 O         -2.4848806885       -1.1923987501       -2.1249521979
 C         -3.0955858079        1.0280751472       -0.4459456288
 C         -2.0643474469        2.1141533953       -0.2539757401
 C         -2.3553555165        3.3981593775        0.1846620085
 C         -1.3423458277        4.3308430209        0.3451435130
 C         -0.0224982203        4.0003427061        0.1001221015
 C          0.2770386839        2.7167818756       -0.3433657272
 C         -0.7411945035        1.8052319441       -0.5473343872
 H         -0.4957460226        0.8203346865       -0.9196510270
 N          1.6259191869        2.3155291144       -0.5245477639
 S          1.9763324390        0.6831769525       -0.3728083679
 O          1.7243276904       -0.0388383311       -1.6050310921
 O          1.3280753805        0.1997244320        0.8188501557
 C          3.7360612935        0.7792979199       -0.1026883908
 C          4.1792052199        1.2651120764        1.1127090706
 C          5.5422796476        1.3736867144        1.3353032180
 C          6.4360528564        0.9969741037        0.3433231305
 C          5.9770915940        0.5085116606       -0.8701685489
 C          4.6139555868        0.3985463304       -1.0985585728
 H          4.2102294750        0.0180952260       -2.0231118483
 H          6.6735546480        0.2133734162       -1.6384062919
 H          7.4967554503        1.0829122714        0.5187938174
 H          5.9022763248        1.7507515313        2.2789917510
 H          3.4458202934        1.5367978064        1.8544090245
 H          2.0994018174        2.7488980956       -1.3035853074
 H          0.7703970893        4.7145001419        0.2530272050
 H         -1.5861428730        5.3257590713        0.6855281476
 H         -3.3748707294        3.6685001502        0.4074730770
 H         -3.2458088461        0.8898490651       -1.5282408684
 C         -4.4296853710        1.3369649625        0.1980098165
 C         -5.4600912893        2.1328718876       -0.5447649188
 C         -5.6602372688        0.6638096469       -0.3294609848
 H         -6.4118048715        0.3400209392        0.3745058654
 H         -5.5376547111        0.0000375742       -1.1730753868
 H         -6.0802621135        2.8191939371        0.0116773996
 H         -5.2112421985        2.4676617381       -1.5404977456
 H         -4.3513474898        1.4684825383        1.2710215218
