  62
        -98.93801564
 C         -2.3863508382       -1.2073511424       -0.1005864784
 C         -3.1666182191       -0.4941279239        0.8355213494
 C         -4.0141967400        0.5940746843        0.3097194660
 C         -3.9893030411        0.8504563457       -1.0118117324
 C         -4.7279159859        1.9251478215       -1.7642650949
 C         -4.0985933207        3.3159841315       -1.5806325610
 C         -3.6846770030        3.6517460035       -0.1500240552
 H         -2.9812731819        2.8966508003        0.2068324265
 H         -3.1501939367        4.6052571073       -0.1733342492
 C         -4.8339988174        3.7856624860        0.8462405847
 H         -4.4021993172        4.1026883193        1.7992062648
 H         -5.5089592018        4.5754997850        0.5091962999
 C         -5.6555885787        2.5191562840        1.0948081079
 H         -6.2697101822        2.6993426991        1.9820252926
 H         -6.3446182872        2.3325439540        0.2756511375
 C         -4.8308135260        1.2690243348        1.3856771482
 H         -4.1327461395        1.4827509927        2.2035744666
 H         -5.5009529572        0.4935964318        1.7766479059
 H         -4.8046037056        4.0652008315       -1.9423254160
 H         -3.2032942331        3.3658504851       -2.2051249443
 H         -4.6766120850        1.6582003589       -2.8220035290
 H         -5.7743580659        1.9306948266       -1.4743916065
 O         -3.2044312640        0.1460838244       -1.8766456110
 C         -2.3884195276       -0.8887900881       -1.4581599744
 O         -1.7315996982       -1.4301381052       -2.3665114763
 H         -0.2289168381       -0.0291681485        0.7418088008
 C          0.4410246198       -0.7787498242        0.3368815252
 C         -0.0517033849       -2.0510849044        0.0726906261
 C          0.8239766870       -3.0057144025       -0.4273438333
 C          2.1473040448       -2.6826790965       -0.6744657576
 C          2.6265714563       -1.4096808776       -0.4288766746
 C          1.7637616858       -0.4500779185        0.0849255932
 N          2.2397752256        0.8505741267        0.3317391212
 S          3.6152783787        1.0161323624        1.2832695919
 O          3.7400297230       -0.0736882263        2.2234107689
 O          3.5260390747        2.3452413387        1.8476314623
 C          4.9561215287        0.9708391042        0.1133903650
 C          4.9628443977        1.9038977322       -0.9048583596
 C          6.0019550136        1.8861752756       -1.8213547913
 C          7.0122375716        0.9431416290       -1.7029760369
 C          6.9930108066        0.0156828804       -0.6725797205
 C          5.9557737222        0.0272629344        0.2471068480
 H          5.8958658620       -0.6771047006        1.0614340445
 H          7.7794531263       -0.7162429893       -0.5823171131
 H          7.8193745706        0.9314429154       -2.4182874160
 H          6.0200630571        2.6057503483       -2.6240101848
 H          4.1608519449        2.6211854326       -0.9587974729
 H          1.5220677288        1.4900679819        0.6410476594
 H          3.6538437838       -1.1526436086       -0.6286329261
 H          2.8141955812       -3.4337056379       -1.0694552048
 H          0.4698149516       -4.0034426893       -0.6274470765
 C         -1.5004369130       -2.3392563202        0.3835537802
 H         -1.6142871736       -2.3518577223        1.4785827974
 C         -1.9876575161       -3.6618075798       -0.1707338465
 C         -1.7935866090       -4.9277477314        0.6076603297
 C         -3.1608254045       -4.3282676756        0.4809277536
 H         -3.8874995989       -4.8225405754       -0.1461258477
 H         -3.5896826252       -3.8411710249        1.3447563184
 H         -1.5837923256       -5.8384983434        0.0673040902
 H         -1.2963174293       -4.8561181918        1.5632585906
 H         -1.9231609074       -3.7069550529       -1.2520757151
 O         -3.1531634298       -0.7445988625        2.0729496599
