  62
        -98.93416611
 C         -2.4586362563       -1.3185652323       -0.1176414358
 C         -2.2379330872       -0.0537727606       -0.7103428441
 C         -3.4110273596        0.8342882341       -0.8187938229
 C         -4.6043032617        0.4182124565       -0.3555978005
 C         -5.9621470846        1.0888968873       -0.3618038147
 C         -6.0898633312        2.5909665102       -0.6039822835
 C         -5.4830750635        3.4725739225        0.4867875007
 H         -5.5594643564        4.5131513060        0.1639939945
 H         -6.0783787420        3.3613191257        1.3964328037
 C         -4.0302044495        3.1724961742        0.8484136429
 H         -3.7240380961        3.8828647071        1.6211676953
 H         -3.9572399538        2.1741086490        1.2848321275
 C         -3.0321953691        3.2823410081       -0.3031783098
 H         -2.0271249552        3.2067489112        0.1220577797
 H         -3.1214752576        4.2621289236       -0.7765561356
 C         -3.1515849135        2.1983976632       -1.3893386558
 H         -3.9063761937        2.4565344252       -2.1284425506
 H         -2.1903004355        2.1362063117       -1.9084911284
 H         -5.6790038426        2.8530682048       -1.5744305067
 H         -7.1607625522        2.8079079245       -0.6442785829
 H         -6.5504557748        0.5653984174       -1.1234182720
 H         -6.4170945809        0.8423371933        0.6025591137
 O         -4.7685639413       -0.8190873627        0.1985166624
 C         -3.7154291836       -1.7027225469        0.3465432946
 O         -4.0210297050       -2.7784571141        0.8994853562
 H          1.3138366377       -1.4954755943       -0.3997989237
 C          0.9811256895       -1.3085602726        0.6064967008
 C         -0.2991422353       -1.6570923719        1.0046399799
 C         -0.6924090130       -1.3867172380        2.3137935396
 C          0.1717429801       -0.7723559675        3.1979939638
 C          1.4420450187       -0.4039151894        2.7898293775
 C          1.8465630800       -0.6731811325        1.4882186076
 N          3.1503561893       -0.3406213940        1.0694340727
 S          3.3655489806        0.4266241631       -0.4227638129
 O          2.6205877438        1.6653929738       -0.4612760475
 O          3.1239563974       -0.5176932836       -1.4822716520
 C          5.1130314451        0.7763800508       -0.3265148883
 C          5.5380323460        2.0521049466       -0.0084105618
 C          6.8981821097        2.3029364621        0.0845641519
 C          7.8053325461        1.2781119853       -0.1375612006
 C          7.3638396724        0.0023065508       -0.4562639355
 C          6.0055066907       -0.2542950832       -0.5523226808
 H          5.6159541546       -1.2263200937       -0.8057278279
 H          8.0723953311       -0.7912642915       -0.6307073774
 H          8.8631240157        1.4755931173       -0.0646606255
 H          7.2439699567        3.2944610853        0.3288529232
 H          4.7960507897        2.8188901931        0.1472507990
 H          3.6425742188        0.1874753390        1.7795667376
 H          2.1152785751        0.0882558201        3.4758804400
 H         -0.1470042947       -0.5686290824        4.2093189372
 H         -1.6927377223       -1.6610708695        2.6220589647
 C         -1.3071011044       -2.2908686638        0.0764489448
 H         -1.7349705188       -3.1671770393        0.5844016891
 C         -0.7320746238       -2.7318139360       -1.2516316452
 C          0.0369337975       -4.0147645719       -1.3365124018
 C         -1.3285515825       -3.9173718475       -1.9462160972
 H         -1.4144182573       -3.8939792202       -3.0222172285
 H         -2.1470810715       -4.4216383060       -1.4530946332
 H          0.8931175399       -4.0567515938       -1.9925699684
 H          0.1467880988       -4.5899685612       -0.4295559648
 H         -0.4081098565       -1.9027277142       -1.8703865605
 O         -1.1167495400        0.3259558071       -1.1404840890
