  62
        -98.94725478
 C          0.9435428594        1.5531133064       -0.8607436052
 C          2.2465315594        1.5304342128       -0.2990879336
 C          3.0476035891        0.3296483220       -0.5509030580
 C          2.5313137233       -0.6692466501       -1.2881736485
 C          3.2024771391       -1.9772443936       -1.6072195251
 C          3.0565077476       -3.0211893381       -0.4911535796
 C          3.9293310628       -2.7777781561        0.7406607426
 H          3.9198201508       -3.6994295496        1.3262412036
 H          4.9593780091       -2.5983357694        0.4293251239
 C          3.4479931330       -1.6262544889        1.6348394072
 H          2.4017424580       -1.4010365819        1.4105227552
 H          3.4803573758       -1.9429348531        2.6805692941
 C          4.2774599263       -0.3459415796        1.5274030615
 H          3.8118862633        0.4134224327        2.1610401496
 H          5.2854421115       -0.5312045173        1.9069951370
 C          4.3894349678        0.2256711524        0.1084853230
 H          4.8038184891        1.2346649203        0.1795451287
 H          5.0612892256       -0.3875280934       -0.4920346261
 H          2.0092364657       -3.0606585840       -0.1788911593
 H          3.3191290776       -3.9945018415       -0.9130652515
 H          2.7239094883       -2.3635902894       -2.5098110671
 H          4.2595371133       -1.8116402411       -1.8174502406
 O          1.3020566432       -0.5919037159       -1.8547727743
 C          0.4620642818        0.4904936837       -1.6259608848
 O         -0.6523526704        0.3677137628       -2.1721801599
 O          2.7179093388        2.4785344037        0.3866002119
 C          0.0656456154        2.7299905145       -0.4686376154
 C         -0.6783404546        2.3775935047        0.7998971840
 C         -0.7095622979        3.2367318662        1.8915800792
 C         -1.3325362257        2.8551594452        3.0673128180
 C         -1.8974540518        1.5981426074        3.1913051895
 C         -1.8721440256        0.7340003140        2.1028987352
 C         -1.3059884795        1.1457477718        0.9075816066
 H         -1.3148144183        0.4723077951        0.0666085491
 N         -2.3953145748       -0.5656412820        2.1754701426
 S         -1.5794489893       -1.7998291663        1.3804878292
 O         -1.9521984550       -2.9982395008        2.1081337196
 O         -0.1602912926       -1.5421719709        1.2972956487
 C         -2.3145094328       -1.8884087737       -0.2361321273
 C         -3.6260432381       -1.4962523897       -0.4118874255
 C         -4.1988265191       -1.6279273645       -1.6662212621
 C         -3.4585351128       -2.1528461296       -2.7141018399
 C         -2.1449664207       -2.5466270365       -2.5190289239
 C         -1.5654819269       -2.4144476174       -1.2680758975
 H         -0.5389169215       -2.6895118334       -1.0820848952
 H         -1.5637416327       -2.9438558697       -3.3356879419
 H         -3.9048986852       -2.2498065159       -3.6913842257
 H         -5.2191012444       -1.3164947732       -1.8238064642
 H         -4.1697357546       -1.0844867277        0.4223168190
 H         -2.7092275166       -0.8549732609        3.0905959189
 H         -2.3435406406        1.2832267373        4.1223312890
 H         -1.3513978288        3.5318043691        3.9081804119
 H         -0.2216325965        4.1976849014        1.8245480435
 H          0.7575345482        3.5501755886       -0.2316285544
 C         -0.8913722872        3.2025132690       -1.5433622557
 C         -1.3847022229        4.6170541778       -1.5086664486
 C         -0.4167259730        4.1863623890       -2.5686040274
 H         -0.7692321204        4.0800022685       -3.5831662398
 H          0.6053992904        4.5287304350       -2.4959020958
 H         -2.4069506621        4.8109760476       -1.7942150921
 H         -1.0187456860        5.2579449242       -0.7210589150
 H         -1.5790851090        2.4345381804       -1.8716282440
