  62
        -98.93543507
 C          2.5041569897        1.2115811369        0.2354246193
 C          3.0657954201        0.2501943356        1.1125264519
 C          3.8115128889       -0.8446635407        0.4855444651
 C          3.9108165771       -0.8990886196       -0.8550406369
 C          4.6572252279       -1.9386591513       -1.6462464878
 C          3.8543671844       -3.2209668081       -1.9043230246
 C          3.6619741263       -4.1239512984       -0.6853213655
 H          3.2782704728       -5.0784319111       -1.0509034904
 H          4.6292487544       -4.3174323124       -0.2204340836
 C          2.6863208110       -3.5721162719        0.3638974726
 H          2.0738272569       -2.7844338265       -0.0833567833
 H          1.9998879870       -4.3630624095        0.6760351201
 C          3.3550211359       -3.0280006824        1.6267858573
 H          3.8535902441       -3.8430628855        2.1561464160
 H          2.5747523143       -2.6299117514        2.2810353061
 C          4.3775112982       -1.9124906984        1.3723795232
 H          4.6272165250       -1.4521296289        2.3314685879
 H          5.2853319440       -2.3279728959        0.9358365948
 H          2.8776541538       -2.9469262862       -2.3105886539
 H          4.3859221651       -3.7899603127       -2.6705530142
 H          4.8961988945       -1.4830491401       -2.6094925733
 H          5.5889284975       -2.1873805214       -1.1374389599
 O          3.3373542867        0.0265323412       -1.6653545284
 C          2.5968137449        1.0863633527       -1.1523595189
 O          2.0992258485        1.8158262331       -2.0259298535
 O          2.9499171195        0.3064594324        2.3678804053
 C          1.7018806688        2.3476996734        0.8607350396
 C          0.2711797808        2.1956159923        0.4082792522
 C         -0.3413326445        2.8569931104       -0.6486978714
 C         -1.6418186916        2.5481446351       -1.0130192757
 C         -2.3604858487        1.5712251780       -0.3503190396
 C         -1.7544409857        0.8868928407        0.6948886977
 C         -0.4611249089        1.2106792053        1.0679884056
 H          0.0092725489        0.6641457552        1.8768359260
 N         -2.4647962783       -0.1302385174        1.3649304941
 S         -3.0179222392       -1.3993908421        0.4082275818
 O         -3.1253624003       -2.5319487265        1.3025935124
 O         -2.1882980161       -1.5799380784       -0.7616626571
 C         -4.6531884551       -0.8807201006       -0.0674621624
 C         -4.9834017802       -0.7771201120       -1.4043213216
 C         -6.2646280183       -0.3740636717       -1.7481698141
 C         -7.1870132413       -0.0837814918       -0.7545172224
 C         -6.8397385601       -0.1948972494        0.5838164323
 C         -5.5613826049       -0.5984628021        0.9343431656
 H         -5.2512406053       -0.7018290737        1.9606657412
 H         -7.5597632329        0.0317727666        1.3534794713
 H         -8.1825221282        0.2309166266       -1.0251131968
 H         -6.5360904901       -0.2872235182       -2.7880057554
 H         -4.2303999443       -1.0066695952       -2.1415598555
 H         -1.9663525614       -0.4990594595        2.1631450233
 H         -3.3689958392        1.3258609697       -0.6408805001
 H         -2.0975341827        3.0750569167       -1.8376453846
 H          0.1966447569        3.5901521726       -1.2214201736
 H          1.7106364036        2.1087653489        1.9363883765
 C          2.4199552256        3.6844564997        0.7542729498
 C          2.5729241853        4.5166705027       -0.4817866930
 C          1.7191775613        5.0055894544        0.6494748853
 H          2.0891518328        5.8250586241        1.2475577386
 H          0.6478945988        5.0004078175        0.5274750635
 H          3.5307034375        4.9928035988       -0.6388433407
 H          2.1205941340        4.1693883162       -1.3953535562
 H          3.2968619280        3.6668138050        1.3979004774
