  62
        -98.93926892
 C         -2.5445346386       -0.1785620324        0.0376434796
 C         -2.2549792158       -1.1834277225       -0.9111732127
 C         -1.6287259711       -2.4176123468       -0.4058782989
 C         -1.3730517658       -2.5317290829        0.9110613789
 C         -0.7597595244       -3.6547647144        1.7223407368
 C         -0.1776711676       -4.8832004201        1.0305833724
 C          1.1433201844       -4.6305671809        0.3002748102
 H          1.3756715030       -5.5056738529       -0.3103612070
 H          1.9325031043       -4.5257422803        1.0488122373
 C          1.1906783222       -3.3833777051       -0.5796486515
 H          2.2108438237       -3.2766612979       -0.9612055500
 H          0.9901121730       -2.4919793184        0.0189477304
 C          0.2535135656       -3.3919697882       -1.7847276846
 H          0.4843504321       -4.2453630800       -2.4269956035
 H          0.4501002971       -2.4774456381       -2.3534685790
 C         -1.2452287159       -3.4248859401       -1.4525710724
 H         -1.5611339667       -4.4260647722       -1.1702466234
 H         -1.7960834300       -3.1476959914       -2.3569090777
 H         -0.9163026400       -5.3184274159        0.3635881778
 H          0.0160236272       -5.6221882752        1.8126983578
 H         -1.5469946512       -3.9803484868        2.4111834542
 H          0.0151451774       -3.1866373972        2.3382193499
 O         -1.7105337614       -1.5487383486        1.7968124817
 C         -2.2403050285       -0.3389341406        1.3879582546
 O         -2.4105241979        0.4854978533        2.3072536199
 O         -2.5069472348       -1.0538212635       -2.1423414256
 C         -3.0482172102        1.1690244093       -0.4439092156
 C         -1.9922043662        2.2180117356       -0.1822717928
 C         -2.2799560039        3.5266488724        0.1810988620
 C         -1.2544666189        4.4318379253        0.4029138936
 C          0.0699213395        4.0521162208        0.2925280730
 C          0.3680663974        2.7409627914       -0.0673846208
 C         -0.6596424757        1.8547894776       -0.3333427466
 H         -0.4150781445        0.8504746676       -0.6468639132
 N          1.7017133011        2.2953384435       -0.1149392420
 S          2.0696381825        0.6788165178       -0.3623555622
 O          1.8140338746        0.2834740103       -1.7320250916
 O          1.4356221057       -0.0985118251        0.6717716358
 C          3.8292784487        0.7365559773       -0.0817258884
 C          4.2854616024        0.7852283415        1.2218212033
 C          5.6496547088        0.8595037198        1.4531346876
 C          6.5311971615        0.8844021944        0.3823928635
 C          6.0595037100        0.8320526213       -0.9203727504
 C          4.6957117545        0.7583039541       -1.1577773278
 H          4.2827065977        0.7062542764       -2.1523171551
 H          6.7469648503        0.8480286419       -1.7506479523
 H          7.5925388237        0.9420471918        0.5652065342
 H          6.0194505754        0.8970961590        2.4651197098
 H          3.5619487450        0.7543753102        2.0202062099
 H          2.3578493962        2.9356770487       -0.5354038126
 H          0.8663522868        4.7521266709        0.4893375892
 H         -1.4929934397        5.4474875238        0.6801108602
 H         -3.3059415529        3.8376120969        0.2933335156
 H         -3.1643815013        1.0660560186       -1.5342729466
 C         -4.3936776335        1.5077998372        0.1618622356
 C         -5.3881386178        2.3238197250       -0.6075031665
 C         -5.6225714824        0.8589107814       -0.3989462597
 H         -6.3990736335        0.5492738580        0.2840252265
 H         -5.4892759058        0.1932264972       -1.2394050034
 H         -6.0096144855        3.0217396977       -0.0670521735
 H         -5.1070328155        2.6535379063       -1.5963937521
 H         -4.3416689028        1.6378727774        1.2367629534
