  62
        -98.93460876
 C          1.9627593437        1.0771588483        0.3431318361
 C          2.6133555630        0.1064670470        1.1445640866
 C          4.0349460863       -0.1557088480        0.8652064508
 C          4.6404622527        0.5104047416       -0.1355166979
 C          6.0716210022        0.4876430781       -0.6303677743
 C          7.0377895364       -0.6020387995       -0.1740199606
 C          6.7136236158       -2.0016756742       -0.6962381508
 H          6.9090048338       -2.0240735975       -1.7713605650
 H          7.3940027048       -2.7111968080       -0.2203104240
 C          5.2766355681       -2.4705840908       -0.4816430881
 H          4.5912710718       -1.8165268890       -1.0248144758
 H          5.1815556340       -3.4683219464       -0.9189033010
 C          4.8275737159       -2.5587990893        0.9754241482
 H          5.5197885555       -3.1901463968        1.5361038264
 H          3.8472782281       -3.0433487976        0.9887122378
 C          4.6886003481       -1.2132805693        1.7072729346
 H          5.6484923159       -0.8675226292        2.0833317613
 H          4.0336936384       -1.3654689282        2.5702657703
 H          7.1157950562       -0.6061907977        0.9092053356
 H          8.0229285908       -0.3268730359       -0.5604492473
 H          6.0092693964        0.4761068492       -1.7232383128
 H          6.4938800109        1.4611081729       -0.3574611524
 O          3.9711536003        1.4290879358       -0.8888790044
 C          2.6306948007        1.7291318341       -0.6923709253
 O          2.1883366796        2.5758211385       -1.4895711747
 O          2.0277430591       -0.5107378727        2.0752893294
 C          0.4975397008        1.3387792120        0.6467125778
 C         -0.3577990935        0.4413307871       -0.2098234390
 C         -0.3549063259        0.5554023320       -1.5972488835
 C         -1.1447411018       -0.2754560528       -2.3702542689
 C         -1.9531477078       -1.2323226533       -1.7794764632
 C         -1.9571372396       -1.3568837515       -0.3975971764
 C         -1.1642446696       -0.5212040443        0.3782512946
 H         -1.1623409614       -0.6308717153        1.4543221946
 N         -2.8101964084       -2.3071217284        0.2059389227
 S         -4.4464257324       -2.0196137043       -0.0417961032
 O         -5.1326478153       -2.7199784774        1.0198489748
 O         -4.7951705539       -2.3994892447       -1.3865557141
 C         -4.5960735371       -0.2540589626        0.1602273506
 C         -4.6048703497        0.2583857186        1.4424587198
 C         -4.6077326669        1.6329081291        1.6152097582
 C         -4.5885813287        2.4674226386        0.5080879343
 C         -4.5833367988        1.9369463700       -0.7725368121
 C         -4.5853045865        0.5629147291       -0.9521984527
 H         -4.5800943105        0.1114628571       -1.9305813930
 H         -4.5689771098        2.5890998860       -1.6309680316
 H         -4.5724422850        3.5369328299        0.6441674669
 H         -4.6163486527        2.0491339097        2.6099899593
 H         -4.6208047508       -0.4234641277        2.2779466471
 H         -2.6322989752       -2.4245151413        1.1938144408
 H         -2.5863902523       -1.8786003887       -2.3658136035
 H         -1.1333214226       -0.1767788822       -3.4452093335
 H          0.2744954285        1.3034648339       -2.0553238255
 H          0.3733929298        1.0140478354        1.6909717300
 C          0.1073221166        2.8095029177        0.5622009684
 C         -1.0827695002        3.2961825272       -0.2075311847
 C         -1.1153059145        3.2885989588        1.2883877191
 H         -1.0691748231        4.2280072896        1.8178157367
 H         -1.7285612203        2.5391474770        1.7665319870
 H         -0.9907591145        4.2412721578       -0.7205247129
 H         -1.6883018058        2.5718652116       -0.7296752926
 H          0.9673043160        3.4689305802        0.5736675012
