  62
        -98.94413542
 C          2.5392063480        1.1487662821       -0.0727710318
 C          3.2060250965        0.3663115008        0.8995583576
 C          3.9911726703       -0.7612890556        0.3857273412
 C          4.0496045824       -0.9841514195       -0.9402537535
 C          4.8284206054       -2.0776016397       -1.6200788899
 C          4.0905275154       -3.4218791212       -1.6846771800
 C          3.9811921555       -4.1677430660       -0.3541980875
 H          4.9707569911       -4.2543468759        0.0954212782
 H          3.6361183293       -5.1786120595       -0.5799938372
 C          3.0120617596       -3.5293096333        0.6508670664
 H          2.3738906194       -4.3025559702        1.0851069666
 H          2.3550436674       -2.8297071407        0.1280728943
 C          3.6914903112       -2.7992375954        1.8098652335
 H          4.2497974089       -3.5154165844        2.4167339548
 H          2.9146008933       -2.3593189110        2.4413542762
 C          4.6439660884       -1.6761040149        1.3777803068
 H          5.5591700424       -2.0980620802        0.9634726295
 H          4.8983363856       -1.0841221201        2.2604050405
 H          4.6319528111       -4.0574134896       -2.3889928172
 H          3.0906221938       -3.2520884034       -2.0907048793
 H          5.7873415852       -2.2109188814       -1.1187670230
 H          5.0131707697       -1.7375497136       -2.6412115834
 O          3.3980609763       -0.2050367737       -1.8432758748
 C          2.6042732624        0.8584110153       -1.4358934293
 O          2.0286026816        1.4527241691       -2.3656172238
 O          3.1433080676        0.5959871460        2.1385052414
 C          1.6822566357        2.3147032636        0.3849311446
 C          0.2351518447        2.0606630802        0.0374680136
 C         -0.5843698960        2.9993222327       -0.5743297362
 C         -1.9064378581        2.6979820592       -0.8548976847
 C         -2.4398240066        1.4645761774       -0.5310043449
 C         -1.6335124644        0.5226122122        0.0954290906
 C         -0.3114813862        0.8284966159        0.3771521038
 H          0.3151326841        0.0937899810        0.8691622979
 N         -2.1640829196       -0.7377291182        0.4246424985
 S         -3.5939276287       -0.7856183463        1.3061659538
 O         -3.7407542718        0.3861101950        2.1382164714
 O         -3.5730870418       -2.0609124125        1.9889166558
 C         -4.8657584799       -0.8154200995        0.0610704435
 C         -4.8287601239       -1.8233505216       -0.8824372621
 C         -5.8163833354       -1.8671134826       -1.8533552347
 C         -6.8201858700       -0.9098977412       -1.8622290296
 C         -6.8451992279        0.0934705743       -0.9057649587
 C         -5.8593443844        0.1437901623        0.0675896113
 H         -5.8349234425        0.9078438764        0.8281413389
 H         -7.6266506647        0.8361647508       -0.9142139223
 H         -7.5875478978       -0.9466980905       -2.6192405058
 H         -5.8000330271       -2.6458048275       -2.5988330337
 H         -4.0342872328       -2.5495724285       -0.8378824316
 H         -1.4855790154       -1.3689768871        0.8257427562
 H         -3.4666445822        1.2252582052       -0.7541577333
 H         -2.5295834104        3.4351848141       -1.3376095417
 H         -0.1876264429        3.9661190075       -0.8364072739
 H          1.7667312065        2.3240974108        1.4825402991
 C          2.2210435052        3.6223168903       -0.1543992994
 C          2.0001197777        4.8974151779        0.6014584922
 C          3.3646110737        4.2801059800        0.5560757002
 H          4.1309404338        4.7597834564       -0.0340136804
 H          3.7391072887        3.7971518748        1.4470631609
 H          1.8315970870        5.8057351771        0.0430142543
 H          1.4488748606        4.8400947865        1.5279985999
 H          2.2180257790        3.6589394934       -1.2377269793
