  62
        -98.94200439
 C          0.6730880049        1.3617418232        0.0169051876
 C          1.4222405321        0.7455855695        1.0437282441
 C          2.4552395065       -0.2195902058        0.6231194769
 C          2.6262822470       -0.4686156633       -0.6889525022
 C          3.6370035655       -1.3229007119       -1.4274348782
 C          4.7467698578       -2.0452756415       -0.6691787088
 C          5.8627498773       -1.1290398530       -0.1634322839
 H          6.5151741094       -1.7064293468        0.4948168693
 H          6.4578247348       -0.8083701223       -1.0221852195
 C          5.4047106966        0.1301051094        0.5684472188
 H          6.2922202935        0.7254599951        0.7994092305
 H          4.7751974829        0.7316513808       -0.0899195502
 C          4.6578918362       -0.1132611372        1.8771824949
 H          4.4920529521        0.8574341370        2.3527586868
 H          5.2756630621       -0.7124434593        2.5494548287
 C          3.2903858111       -0.7975403138        1.7304136339
 H          3.4019508467       -1.8725552693        1.6123864436
 H          2.7288716517       -0.6277168324        2.6543780935
 H          4.3284409695       -2.6315087399        0.1438321936
 H          5.1981090358       -2.7537042661       -1.3688207072
 H          3.0535183445       -2.0613886703       -1.9838502340
 H          4.0897646282       -0.6670536953       -2.1784690286
 O          1.8096476209        0.0803006548       -1.6356840296
 C          0.8245787525        0.9996693004       -1.3199036025
 O          0.1753593795        1.4125259384       -2.2978095690
 H         -1.6503243168        0.2925794675        1.1310633649
 C         -2.2365403197        0.8852641815        0.4430860412
 C         -1.7091471131        2.0697842691       -0.0579609423
 C         -2.4861450281        2.8344614301       -0.9178682560
 C         -3.7541617501        2.4114716255       -1.2764135843
 C         -4.2714530961        1.2268061351       -0.7873089741
 C         -3.5054474707        0.4601233426        0.0850370193
 N         -4.0133201643       -0.7338392100        0.6135520677
 S         -3.0126302994       -1.9569001401        1.1252568486
 O         -3.8634117810       -3.1292682431        1.1286250950
 O         -2.4147253252       -1.6233933768        2.3938670411
 C         -1.7480307181       -2.1694211924       -0.1155402746
 C         -2.0621595283       -2.0277676693       -1.4521517156
 C         -1.0871275927       -2.2894000639       -2.4004754921
 C          0.1714241746       -2.7081924024       -2.0006478338
 C          0.4722920157       -2.8466911093       -0.6550350466
 C         -0.4930709955       -2.5664539406        0.2977863577
 H         -0.2940939674       -2.6432692087        1.3552701803
 H          1.4514456975       -3.1705994401       -0.3407895237
 H          0.9203303790       -2.9247280556       -2.7462772234
 H         -1.3117481385       -2.1673704587       -3.4477127636
 H         -3.0507333597       -1.7136295760       -1.7445260888
 H         -4.8717370776       -1.0704665410        0.2047558104
 H         -5.2594524665        0.8966871456       -1.0690265583
 H         -4.3462762517        3.0114121534       -1.9504714458
 H         -2.0981431339        3.7577269755       -1.3140922153
 C         -0.3184136266        2.4533281193        0.3769479543
 H         -0.3108169344        2.5025357656        1.4760009612
 C          0.1520901193        3.7834803309       -0.1743946478
 C         -0.2797276407        5.0620558180        0.4772039248
 C          1.1353893919        4.5897526916        0.6177383533
 H          1.9129495407        5.1203235733        0.0888278588
 H          1.4514109813        4.1901241083        1.5704857311
 H         -0.9261818713        4.9887868230        1.3386382487
 H         -0.4724201243        5.9211772403       -0.1472451506
 H          0.2723222267        3.7711645050       -1.2519365945
 O          1.2526819446        1.0036834919        2.2667661337
