  62
        -98.93942807
 C          2.6606457393        1.2409371696       -0.0959217195
 C          2.7057788992        0.1056506699       -0.9402214099
 C          4.0221071791       -0.5340292403       -1.0786022600
 C          5.0815133691       -0.0110593307       -0.4347858396
 C          6.4637966390       -0.5953486309       -0.4427757997
 C          6.6595140187       -1.5700663713        0.7270051100
 C          5.5391005285       -2.6008774012        0.8668147095
 H          4.6124585686       -2.0880470112        1.1354576196
 H          5.7992041683       -3.2517248915        1.7044923393
 C          5.2994116486       -3.4530649107       -0.3872832308
 H          5.1875218984       -4.4963853108       -0.0848065412
 H          6.1682035987       -3.3975297907       -1.0442110507
 C          4.0426028987       -3.0811868503       -1.1764602208
 H          3.1830207486       -3.0431870104       -0.5020269609
 H          3.8517611487       -3.8740761400       -1.9045494511
 C          4.1072560690       -1.7568815900       -1.9477765104
 H          3.2365159291       -1.7150245697       -2.6085306305
 H          5.0086121091       -1.7323086300       -2.5633837402
 H          6.7107260287       -0.9931033917        1.6533444502
 H          7.6135941387       -2.0830754314        0.5932609200
 H          6.6310895391       -1.1074259306       -1.3882031298
 H          7.1828982791        0.2200468389       -0.3486234893
 O          5.0019800792        1.0956584891        0.3483204507
 C          3.7916809193        1.7378446492        0.5507189908
 O          3.8512233793        2.7227937889        1.3149990811
 H         -1.2161682206        1.3427814904       -0.7157459700
 C         -0.9209010808        0.7902239001        0.1627856899
 C          0.3363251591        0.9859567497        0.7098038101
 C          0.6835409389        0.2645786592        1.8492960499
 C         -0.1972433713       -0.6401440108        2.4087805295
 C         -1.4437271813       -0.8510012204        1.8447156192
 C         -1.8055204711       -0.1295564900        0.7160285594
 N         -3.0592781910       -0.3486208796        0.1108703692
 S         -4.4419645811       -0.3252813497        1.0786999390
 O         -4.5719241010        0.9574588501        1.7368307995
 O         -4.4262005114       -1.4771288400        1.9436205787
 C         -5.7042528110       -0.5188395891       -0.1632191112
 C         -5.8809954611       -1.7696378989       -0.7236544016
 C         -6.8431162610       -1.9322835084       -1.7072852918
 C         -7.6075602008       -0.8477361981       -2.1120114515
 C         -7.4189994407        0.4009460417       -1.5394419411
 C         -6.4569313008        0.5709878612       -0.5559338309
 H         -6.2803298807        1.5217149210       -0.0789146506
 H         -8.0165678305        1.2411042719       -1.8547398509
 H         -8.3566102707       -0.9773038077       -2.8771914917
 H         -6.9938485011       -2.9017230682       -2.1542022322
 H         -5.2688543313       -2.5841640691       -0.3733716618
 H         -3.1965148308        0.2630361507       -0.6834094206
 H         -2.1376551315       -1.5558475205        2.2720292189
 H          0.0886584385       -1.1932478912        3.2913487693
 H          1.6597327388        0.4231089889        2.2888643701
 C          1.3413719094        1.9557949297        0.1364130605
 H          1.5411345794        2.7256798494        0.8960479108
 C          0.8865341296        2.6359672902       -1.1376597593
 C          0.0041850998        3.8455490403       -1.0735030490
 C          1.4420804899        3.9864263802       -1.4716040388
 H          1.6738662500        4.2083723505       -2.5024449686
 H          2.1308304299        4.4266759699       -0.7651591285
 H         -0.2889002303        4.1993851100       -0.0964009889
 H         -0.7504640501        3.9762821907       -1.8345717990
 H          0.7455033596        1.9382613405       -1.9552194195
 O          1.7026175292       -0.3504240798       -1.5479988102
