  62
        -98.93749824
 C         -2.2548257687        0.7692937414       -0.0920329596
 C         -3.5734304722        1.1959785925       -0.3954051611
 C         -4.6603171636        0.5076989319        0.3126051337
 C         -4.3579021549       -0.4754798383        1.1794542960
 C         -5.3651203056       -1.2956594172        1.9312986532
 C         -5.7474867322       -2.5597635264        1.1485986816
 C         -6.1141732315       -2.2948907915       -0.3116873818
 H         -5.2271341171       -1.9417665701       -0.8427218161
 H         -6.3935684995       -3.2528858546       -0.7554478153
 C         -7.2563478717       -1.2879651834       -0.5070088300
 H         -7.9471555655       -1.6830572812       -1.2547678911
 H         -7.8146985181       -1.1765374676        0.4230938993
 C         -6.8101078699        0.0906294222       -0.9975823898
 H         -6.1719615823       -0.0217937612       -1.8776308073
 H         -7.6994434941        0.6457103282       -1.3074516126
 C         -6.0666042849        0.9554607915        0.0281213579
 H         -5.9816127952        1.9638575803       -0.3872781064
 H         -6.6465353167        1.0116719495        0.9515460646
 H         -4.8995851155       -3.2483665342        1.1692150075
 H         -6.5870709457       -3.0386244522        1.6557188671
 H         -4.9253484264       -1.5889894072        2.8860282037
 H         -6.2497297587       -0.6904706749        2.1200648311
 O         -3.0848979289       -0.8725368805        1.4306481907
 C         -2.0006739858       -0.2767881166        0.7958766687
 O         -0.9027802765       -0.7742823786        1.1092532020
 O         -3.8285360769        2.1081385104       -1.2260028701
 C         -1.1126231019        1.4666993003       -0.8083107106
 C         -0.1135380801        0.4593416535       -1.3194254739
 C         -0.5414752147       -0.4974251706       -2.2364657532
 C          0.3307848568       -1.4537413344       -2.7170552624
 C          1.6495174693       -1.4720163242       -2.2990283231
 C          2.0919785842       -0.5122317203       -1.3961090700
 C          1.2120605050        0.4476212825       -0.9157161334
 H          1.5713176610        1.1622910868       -0.1958352128
 N          3.4445846582       -0.4852538951       -1.0118564308
 S          3.9326648609        0.0838773144        0.4974096092
 O          3.3466114776       -0.6967784334        1.5637411209
 O          3.7275580351        1.5093144486        0.5523778028
 C          5.6804981184       -0.2576838584        0.3810246307
 C          6.2093909177       -1.3550687696        1.0331228148
 C          7.5655822055       -1.6169867533        0.9148442166
 C          8.3651503617       -0.7830850544        0.1480992209
 C          7.8203095176        0.3156160599       -0.5001386900
 C          6.4657899568        0.5836640172       -0.3844982048
 H          6.0001735897        1.4299654797       -0.8617308713
 H          8.4457079450        0.9632558617       -1.0931483266
 H          9.4200591105       -0.9888625369        0.0578009469
 H          7.9919029799       -2.4683691396        1.4206145536
 H          5.5503549968       -1.9706589160        1.6243002962
 H          3.9226035215       -1.3494508267       -1.2292385523
 H          2.3301806121       -2.2242737188       -2.6680227103
 H         -0.0182908432       -2.1965894052       -3.4187676322
 H         -1.5755786145       -0.4892457859       -2.5547076185
 H         -1.5886237632        1.9442304454       -1.6819756215
 C         -0.4707392944        2.5858433979       -0.0020892622
 C         -1.2368864269        3.3368725487        1.0440825927
 C         -0.1164070483        2.4271201353        1.4450243826
 H          0.8094592271        2.8616421380        1.7946784258
 H         -0.3540010780        1.4864092039        1.9177214216
 H         -1.0878314899        4.4032987681        1.1213202138
 H         -2.2488778412        3.0196478957        1.2499917531
 H          0.2182422300        3.1727540269       -0.6027565794
