  62
        -98.93627160
 C          1.2047594239        1.8264675723       -0.6500410059
 C          1.3524803339        0.4839837299       -1.0732180945
 C          2.6567330510       -0.1486847976       -0.7857008911
 C          3.6088680402        0.5572015755       -0.1538831406
 C          4.9630799967        0.0772233160        0.2895263772
 C          4.9114732097       -0.4097229028        1.7476684094
 C          4.5123154337       -1.8742641837        1.9250033797
 H          5.3321550142       -2.5112751971        1.5861637006
 H          4.3851051940       -2.0473815585        2.9961712793
 C          3.2316368647       -2.3006137726        1.2017641330
 H          2.8674269069       -3.2092817652        1.6842620449
 H          2.4622069388       -1.5368542751        1.3284788124
 C          3.4487017262       -2.5831187653       -0.2918482183
 H          3.0292112546       -3.5599267738       -0.5378756942
 H          4.5188869514       -2.6473175791       -0.4882306229
 C          2.8068365412       -1.5708528003       -1.2524255693
 H          3.3646965953       -1.5702978339       -2.1946739352
 H          1.7874620701       -1.8899984622       -1.4888525074
 H          4.2116190127        0.2318700712        2.2895907535
 H          5.8963144662       -0.2708693312        2.1985775659
 H          5.6329990696        0.9378371229        0.2338429184
 H          5.3342068937       -0.6992972405       -0.3725440062
 O          3.4265756461        1.8506272545        0.2323670210
 C          2.2351364939        2.5086178559        0.0022927526
 O          2.2139873745        3.6877613460        0.4105024883
 O          0.4561055515       -0.1738389211       -1.6596238380
 C         -0.0766260552        2.6219017252       -0.8475675106
 C         -1.0143289621        2.3600509444        0.3018885747
 C         -1.4200186208        3.3957963891        1.1357737189
 C         -2.2426396315        3.1464783322        2.2197267282
 C         -2.6947645317        1.8647349883        2.4759687233
 C         -2.2979359874        0.8228478316        1.6459410136
 C         -1.4510453201        1.0705557502        0.5762723711
 H         -1.1312351860        0.2533564038       -0.0514555838
 N         -2.7397156622       -0.4927009366        1.8662146279
 S         -3.3717701478       -1.3187350579        0.5453457219
 O         -3.9464016284       -0.4002417911       -0.4099235376
 O         -4.2912702941       -2.2765301119        1.1279586909
 C         -2.0166137986       -2.2206594813       -0.1658283424
 C         -1.1918226267       -2.9400855605        0.6756809609
 C         -0.1915652490       -3.7202417836        0.1210356271
 C         -0.0407777416       -3.7733356221       -1.2565653723
 C         -0.8742346871       -3.0404484865       -2.0857634486
 C         -1.8734713183       -2.2539552458       -1.5370463966
 H         -2.5340103702       -1.6568659061       -2.1448789127
 H         -0.7441959414       -3.0688495031       -3.1556045069
 H          0.7344046222       -4.3876047856       -1.6883425875
 H          0.4672460803       -4.2833082868        0.7624973809
 H         -1.3431806985       -2.8763119576        1.7406969046
 H         -3.3403249406       -0.6002886935        2.6717334413
 H         -3.3478371832        1.6684777262        3.3132539274
 H         -2.5432144132        3.9584535250        2.8645620834
 H         -1.0694726192        4.3985942077        0.9390239806
 H          0.2323639774        3.6776348017       -0.7869218919
 C         -0.7034722307        2.4200250276       -2.2199019853
 C         -2.0175205952        1.7486055677       -2.4700205693
 C         -1.8999912758        3.2345130303       -2.6161148833
 H         -1.9331023959        3.6672358854       -3.6047454720
 H         -2.3556182264        3.8461212145       -1.8512770196
 H         -2.0992605805        1.1497151794       -3.3651748138
 H         -2.5836857013        1.3531464374       -1.6408034687
 H          0.0526990638        2.2738941484       -2.9850792738
