  62
        -98.94522176
 C          1.5816816100        0.2987081899       -0.6096809297
 C          2.8485481502        0.9267182696       -0.7205031393
 C          3.8555367999        0.5332453989        0.2698866307
 C          3.5307471296       -0.3443356115        1.2363562002
 C          4.4324969893       -0.8151947722        2.3451948201
 C          5.3622186391       -1.9704524223        1.9490283097
 C          6.5168555793       -1.5877947922        1.0222832500
 H          7.0548482794       -0.7391939625        1.4459881005
 H          7.2063499791       -2.4341552623        1.0039547298
 C          6.0925537895       -1.2651972914       -0.4172616099
 H          6.7612140795       -1.7726591813       -1.1161522900
 H          5.0874360495       -1.6537718211       -0.5959572002
 C          6.1163731900        0.2226755187       -0.7671185692
 H          5.7642420001        0.3385120993       -1.7952058092
 H          7.1422707601        0.5942908885       -0.7185817289
 C          5.2376203501        1.0980911686        0.1359587911
 H          5.6993204200        1.2091386580        1.1169756212
 H          5.1494768304        2.0856937088       -0.3233408185
 H          5.7836713988       -2.3788169428        2.8705141296
 H          4.7634980589       -2.7554036119        1.4813627993
 H          5.0266804495        0.0216415175        2.7137539206
 H          3.7793098091       -1.1584599124        3.1505986699
 O          2.2969392694       -0.9055640812        1.3271749998
 C          1.2976785296       -0.6146410305        0.4065081798
 O          0.2390993094       -1.2389788903        0.6051353794
 H         -1.9636279301        0.1801330708       -0.5233714802
 C         -1.6697618898        1.2085299206       -0.4139638897
 C         -0.4516497096        1.6373627705       -0.9172272994
 C         -0.0899290893        2.9719854204       -0.7499724887
 C         -0.9315054992        3.8530007403       -0.0988758885
 C         -2.1434639793        3.4183633404        0.4098612212
 C         -2.5095973497        2.0868828706        0.2576732706
 N         -3.7400643898        1.6170732507        0.7459083802
 S         -3.7745782303        0.1882849803        1.6331422496
 O         -5.0043373304        0.2815056103        2.3953129795
 O         -2.5667838405        0.0192565396        2.4049486596
 C         -3.9675361005       -1.0876807591        0.4078070190
 C         -2.9657043907       -2.0138831893        0.1966707287
 C         -3.1545731009       -2.9856696888       -0.7749277618
 C         -4.3308633908       -3.0164137482       -1.5077983719
 C         -5.3284508606       -2.0806368680       -1.2775341116
 C         -5.1476190004       -1.1059483985       -0.3101566512
 H         -5.8980622103       -0.3643252084       -0.0927635509
 H         -6.2419602105       -2.1075276175       -1.8493365118
 H         -4.4686295309       -3.7741938578       -2.2631588023
 H         -2.3748624610       -3.7091507689       -0.9548385120
 H         -2.0512832708       -1.9465647298        0.7667589588
 H         -4.3028190097        2.3249029606        1.1966756405
 H         -2.8007040592        4.1037446903        0.9240203014
 H         -0.6416718789        4.8862687402        0.0194756220
 H          0.8648346208        3.3049967103       -1.1321626885
 C          0.5078318502        0.6992800806       -1.6096652997
 H          1.0375084704        1.2768871808       -2.3802472094
 C         -0.1691247100       -0.4849080489       -2.2658758303
 C         -1.0354580198       -0.2555379982       -3.4671290403
 C          0.2886267500       -0.9406518985       -3.6175613004
 H          0.3021177298       -1.9999718684       -3.8252587509
 H          1.0959749102       -0.3949109985       -4.0838268401
 H         -1.9354377300       -0.8419630579       -3.5709515307
 H         -1.1252565895        0.7578098820       -3.8282036499
 H         -0.4737215703       -1.2509241792       -1.5646388007
 O          3.1238998505        1.7789939899       -1.6068956689
