  62
        -98.94298669
 C         -0.2756420443       -1.9467947941        0.2701779831
 C          0.8707120578       -2.4294601335       -0.4009984266
 C          2.1556295020       -1.8712557049        0.0374209823
 C          2.1827750385       -0.9780369910        1.0425564280
 C          3.4077997547       -0.3106543707        1.6081813889
 C          4.1298903009        0.6582261271        0.6499982331
 C          5.3119825942        0.0326534133       -0.1011229764
 H          5.6790442163       -0.8226630662        0.4677958485
 H          6.1274591944        0.7577128191       -0.1408660473
 C          5.0254143608       -0.3979950163       -1.5429956374
 H          5.8393649022       -1.0506998059       -1.8671378667
 H          5.0330633116        0.4847141142       -2.1869487751
 C          3.6934952872       -1.1131095244       -1.7745310833
 H          3.7038003725       -1.5320208125       -2.7833776780
 H          2.8772138143       -0.3847048583       -1.7564783334
 C          3.3760312577       -2.2292472799       -0.7588525493
 H          4.2277620559       -2.4083991355       -0.1041328701
 H          3.1450254639       -3.1563141033       -1.2879200709
 H          4.5068632049        1.4872503413        1.2518307614
 H          3.4119121058        1.0706231152       -0.0611712437
 H          4.1079163332       -1.0783298212        1.9448273432
 H          3.0648646451        0.2388402604        2.4867046067
 O          1.0611359713       -0.5828926732        1.7027165778
 C         -0.1952312438       -1.0096735178        1.3008343952
 O         -1.1387467930       -0.4989436904        1.9321374385
 O          0.8204284154       -3.2789951953       -1.3330691214
 C         -1.6477632329       -2.3477452288       -0.2332589384
 C         -2.4003704337       -1.1290013387       -0.7145113788
 C         -3.7878515530       -1.0431962392       -0.6931725169
 C         -4.4271975411        0.0979656132       -1.1460063741
 C         -3.7040803649        1.1864300767       -1.6004534356
 C         -2.3161406994        1.1102844756       -1.6232802152
 C         -1.6832768022       -0.0501012735       -1.2121033733
 H         -0.6061412477       -0.0945322266       -1.2620534625
 N         -1.5262997132        2.1930504250       -2.0465459563
 S         -0.1074047203        2.5583652440       -1.2474206294
 O          0.1956257796        3.9093047530       -1.6783456879
 O          0.9132582591        1.5809626239       -1.5401867990
 C         -0.4379171489        2.5868388128        0.5068146067
 C          0.6476406499        2.4403054425        1.3452415365
 C          0.4593317812        2.5130577788        2.7146625567
 C         -0.8100082292        2.7311898670        3.2234677565
 C         -1.8892351963        2.8854892263        2.3697434754
 C         -1.7054276360        2.8208470706        0.9980848475
 H         -2.5400678364        2.9326188794        0.3259495335
 H         -2.8782877111        3.0482537054        2.7667803783
 H         -0.9591985434        2.7736965672        4.2909055442
 H          1.3005987307        2.3880205058        3.3777881124
 H          1.6168922562        2.2565209555        0.9102942737
 H         -2.0345035712        3.0322251223       -2.2851337709
 H         -4.2039117630        2.0836706790       -1.9329956439
 H         -5.5051466806        0.1480187523       -1.1287026370
 H         -4.3677749680       -1.8709281865       -0.3186001012
 H         -1.4643463494       -3.0036404441       -1.0983745866
 C         -2.4099756669       -3.1298868358        0.8177167521
 C         -3.3316660294       -4.2434496527        0.4210095428
 C         -2.0221478063       -4.5535819972        1.0793261767
 H         -2.0241796894       -4.9104864717        2.0981491516
 H         -1.2294091103       -4.9679229199        0.4733667084
 H         -4.2365221020       -4.3913468816        0.9910562484
 H         -3.4294200380       -4.4639076481       -0.6314623387
 H         -2.6790268915       -2.5191830963        1.6718838260
