  62
        -98.93852020
 C          1.5331549957        0.6119954318       -0.9756083715
 C          1.6186296917        1.4362638287        0.1727759707
 C          0.7379194077        2.6152968818        0.1783396517
 C         -0.0976598767        2.8238452064       -0.8540357615
 C         -1.0410423231        3.9855275084       -0.9799999376
 C         -2.4293104518        3.6726136643       -0.4071281315
 C         -2.4037685489        3.0684219822        0.9969360915
 H         -1.9651771380        2.0684313791        0.9638547001
 H         -3.4415374554        2.9452433775        1.3173282101
 C         -1.6444690327        3.9020994937        2.0379674565
 H         -2.2328405650        3.9267280768        2.9577488444
 H         -1.5392972899        4.9313111123        1.6909900636
 C         -0.2689091325        3.3407671018        2.4048229380
 H         -0.3601362944        2.2698592806        2.6071721564
 H          0.0636150374        3.8253687219        3.3272054231
 C          0.8342042075        3.5409916734        1.3574145050
 H          1.7920965930        3.3157181416        1.8355654448
 H          0.8489531623        4.5840795038        1.0321499701
 H         -2.9335812513        2.9688650975       -1.0738791408
 H         -3.0093469666        4.5978327244       -0.3930694381
 H         -0.6130924365        4.8437827300       -0.4650647910
 H         -1.1436550996        4.2253243880       -2.0402359160
 O         -0.1868676322        1.9806966748       -1.9156963610
 C          0.6175022801        0.8546527865       -1.9975697334
 O          0.4273893669        0.1607102330       -3.0175367464
 H          0.1141760845       -1.4762242282       -0.3349896036
 C          0.8642546870       -1.7975043035        0.3741925800
 C          2.1969326122       -1.4624745953        0.1405229973
 C          3.1386643853       -1.8986313671        1.0622632818
 C          2.7484032486       -2.6199151752        2.1800051394
 C          1.4192388662       -2.9029966775        2.4259745785
 C          0.4646796705       -2.4739171961        1.5112261800
 N         -0.9061774395       -2.7128388149        1.7052849219
 S         -1.9726944778       -1.4739470457        1.3282082933
 O         -1.3810826507       -0.1747488814        1.5400508653
 O         -3.1559853382       -1.7657489417        2.1125131074
 C         -2.3575585865       -1.7201202654       -0.3912409935
 C         -2.6048202174       -3.0022750445       -0.8404874008
 C         -2.9236792172       -3.1916004875       -2.1752828528
 C         -2.9936394671       -2.1031382009       -3.0319614840
 C         -2.7520564084       -0.8214276003       -2.5635980905
 C         -2.4334715232       -0.6266218760       -1.2295907415
 H         -2.2200328541        0.3532514607       -0.8312273148
 H         -2.7904616593        0.0253628790       -3.2298649963
 H         -3.2339250297       -2.2520652143       -4.0727890259
 H         -3.1118977383       -4.1864959112       -2.5457168470
 H         -2.5357053918       -3.8228997901       -0.1461577402
 H         -1.1401647583       -3.1498575326        2.5853342323
 H          1.1195650538       -3.4365154759        3.3151840591
 H          3.4987081666       -2.9452678728        2.8849821924
 H          4.1815899552       -1.6666310120        0.9485312739
 C          2.4046003142       -0.6340545384       -1.1054313245
 H          1.9584253924       -1.2076820743       -1.9355900282
 C          3.7848959215       -0.2191499154       -1.5899674856
 C          4.9095651320        0.2483221755       -0.7208373418
 C          5.0322223494       -1.0432028850       -1.4756328521
 H          5.6946288234       -1.0643228379       -2.3286055798
 H          4.9888462627       -1.9774847412       -0.9409957117
 H          4.7578376730        0.2434340348        0.3459664797
 H          5.4867396873        1.0954262613       -1.0633944738
 H          3.6695478479        0.3202634889       -2.5284360579
 O          2.3990330308        1.2179122352        1.1336006494
