  62
        -98.93902716
 C          2.7148044042        0.2585401120        0.0508693113
 C          2.3879402460        1.0789359656       -1.0601300765
 C          1.8362915992        2.4047983459       -0.7610291382
 C          1.6871276979        2.7758437492        0.5228085053
 C          1.1284667670        4.0919508437        0.9804942151
 C         -0.3830595748        4.0123200516        1.2290409598
 C         -1.1742165151        3.3922171868        0.0769736737
 H         -0.9375897723        2.3273443559        0.0095458625
 H         -2.2326856423        3.4586741678        0.3415724244
 C         -0.9472841398        4.0514603728       -1.2904832526
 H         -1.9147807763        4.1617445935       -1.7844869752
 H         -0.5324046922        5.0517878157       -1.1575845707
 C         -0.0542620212        3.2475326026       -2.2382509421
 H         -0.1827746747        3.6452954445       -3.2486803344
 H         -0.3854735619        2.2051782231       -2.2465466570
 C          1.4470559604        3.2738785970       -1.9223923280
 H          1.9794631758        2.8705192736       -2.7887170728
 H          1.7747407443        4.3038843127       -1.7645247599
 H         -0.7515762548        5.0215420862        1.4252169394
 H         -0.5578177746        3.4034357671        2.1195577559
 H          1.3440968946        4.8493251387        0.2289449040
 H          1.6248238231        4.3662232845        1.9134918494
 O          2.0222460934        1.9730398839        1.5630834436
 C          2.4893271754        0.6778081274        1.3620661171
 O          2.6730911821        0.0491658914        2.4218964716
 O          2.5699062467        0.7139039864       -2.2532059052
 C          3.1858153359       -1.1476596255       -0.2822036108
 C          1.9800081641       -1.9941175561       -0.6087551507
 C          1.9654203307       -2.8749442324       -1.6836269936
 C          0.8198089700       -3.5834966578       -2.0041037142
 C         -0.3457087618       -3.4049563555       -1.2782535190
 C         -0.3353253701       -2.5353287077       -0.1990104686
 C          0.8223430091       -1.8585923225        0.1434377142
 H          0.7990479346       -1.1761669438        0.9835639244
 N         -1.5529149225       -2.2447021083        0.4941836086
 S         -1.9107936970       -0.5899283182        0.4445280606
 O         -1.3501675038       -0.0355777928       -0.7620969856
 O         -1.5494604332        0.0394980280        1.6989374223
 C         -3.6867469003       -0.6494304244        0.3007181502
 C         -4.4837135444       -0.3620480774        1.3907844838
 C         -5.8605051595       -0.4606398470        1.2595677619
 C         -6.4124664765       -0.8474196683        0.0481940887
 C         -5.5984221821       -1.1333627657       -1.0380829815
 C         -4.2222336284       -1.0354252892       -0.9128519894
 H         -3.5483696941       -1.2406990445       -1.7284943057
 H         -6.0307770751       -1.4326318584       -1.9792776507
 H         -7.4836442949       -0.9256172624       -0.0507055456
 H         -6.4951043352       -0.2371328558        2.1020315065
 H         -4.0101412255       -0.0612740340        2.3115351945
 H         -1.5283835167       -2.5337862952        1.4628967359
 H         -1.2572296630       -3.9157619573       -1.5420923478
 H          0.8267160511       -4.2580550996       -2.8465291488
 H          2.8525575672       -2.9780858292       -2.2914347639
 H          3.7735104535       -1.0465720994       -1.2092829340
 C          4.0867087491       -1.7770759849        0.7677914650
 C          3.6193779805       -2.8488052514        1.7019072739
 C          4.5735733449       -3.1859619014        0.5981632226
 H          5.5985996716       -3.4087702332        0.8517210338
 H          4.1888421385       -3.7513934373       -0.2365855216
 H          3.9787280577       -2.8176196829        2.7187937183
 H          2.5970164465       -3.1837758636        1.6152957721
 H          4.7930610986       -1.0618809558        1.1750546072
