  62
        -98.93503527
 C          1.9896288403        0.1683019438       -0.0768311179
 C          2.8107764153       -0.9939229494        0.0108082750
 C          4.2110405523       -0.8621327321       -0.4059901206
 C          4.6474838669        0.3243395831       -0.8631539944
 C          6.0607582705        0.6284697501       -1.2642586195
 C          6.8721053780        1.1620839519       -0.0752538687
 C          6.7436767036        0.3150123960        1.1909034774
 H          7.3818321797        0.7689436423        1.9521721514
 H          5.7161832926        0.3733031299        1.5575443437
 C          7.1320616496       -1.1592407766        1.0111324294
 H          7.7261166493       -1.2783225264        0.1042980201
 H          7.7601013119       -1.4610644932        1.8519896751
 C          5.9476184601       -2.1268690386        0.9707564375
 H          5.2980760714       -1.9483627670        1.8316308155
 H          6.3366325359       -3.1446444549        1.0613004303
 C          5.0884917900       -2.0772749128       -0.2990425201
 H          5.7280666755       -2.1676505870       -1.1795713180
 H          4.4113407986       -2.9361367125       -0.2763572912
 H          7.9210828593        1.2195653804       -0.3713278802
 H          6.5276201893        2.1733010914        0.1533456071
 H          6.5227304767       -0.2753401536       -1.6569249661
 H          6.0407621530        1.3865406047       -2.0490008895
 O          3.8386435758        1.4037404346       -0.9660028660
 C          2.5033686938        1.3670536761       -0.5791330748
 O          1.9309140103        2.4587627963       -0.7551032684
 H         -1.5884978463       -1.5898093585        0.3372262955
 C         -1.5818963656       -0.8857460914       -0.4815435489
 C         -0.5225834895        0.0026287294       -0.6279384685
 C         -0.5475989703        0.8911063663       -1.6957638683
 C         -1.5991483621        0.8768974873       -2.5959388558
 C         -2.6578542646        0.0015884837       -2.4368397033
 C         -2.6513195824       -0.8824265214       -1.3647363880
 N         -3.7199086768       -1.7766760836       -1.1541968862
 S         -4.5221827885       -1.7024518503        0.3144256526
 O         -3.6364108962       -2.0994490083        1.3778067333
 O         -5.7116030234       -2.5032701337        0.1327566482
 C         -4.9667825163        0.0172890489        0.4818238850
 C         -4.0335950266        0.9119979865        0.9673475127
 C         -4.3591141431        2.2584339876        1.0109447248
 C         -5.6042669626        2.6847377638        0.5751696516
 C         -6.5322364286        1.7729467788        0.0951299045
 C         -6.2100292554        0.4266572529        0.0402861265
 H         -6.9002650413       -0.3171944854       -0.3238424892
 H         -7.5009811875        2.1071049581       -0.2397517025
 H         -5.8514033387        3.7339713454        0.6114489913
 H         -3.6352661678        2.9674416966        1.3798440135
 H         -3.0750020667        0.5490926734        1.3002390251
 H         -4.3945847275       -1.7856047080       -1.9066384409
 H         -3.4803978486       -0.0010684442       -3.1360053577
 H         -1.5971663562        1.5678646466       -3.4252008310
 H          0.2539980127        1.6005524793       -1.8161982934
 C          0.5686148547       -0.0281142005        0.4197193989
 H          0.5910788231       -1.0617735303        0.8008806554
 C          0.1131571352        0.8221979159        1.6071273021
 C          1.0466895059        1.6566383876        2.4274707984
 C          0.0011095013        2.3147467741        1.5785193500
 H         -0.8453748403        2.7703519162        2.0710903731
 H          0.3357424563        2.8256834380        0.6910189066
 H          0.9307689488        1.6560352129        3.5013837358
 H          2.0730916087        1.7297735914        2.0979736745
 H         -0.6655097402        0.3068362638        2.1648388735
 O          2.3866015345       -2.1058199848        0.4291882709
