  62
        -98.93391177
 C         -1.7464032688       -0.4736938165        1.0892769983
 C         -1.9859378500        0.5692178979        0.1631381062
 C         -3.4021518600        0.8468051715       -0.1537179343
 C         -4.3670638178        0.1591775172        0.4792355899
 C         -5.8513821212        0.2464452069        0.2565108648
 C         -6.3092465912       -0.8177463381       -0.7552610340
 C         -6.2261027318       -0.3917956263       -2.2205957542
 H         -6.4476135669       -1.2723482696       -2.8280056650
 H         -7.0022006500        0.3492345708       -2.4231529859
 C         -4.8771605146        0.1821613952       -2.6624568865
 H         -4.0658377791       -0.4184049734       -2.2469281772
 H         -4.8167797252        0.0960477461       -3.7492339506
 C         -4.6903208142        1.6559330383       -2.2717771477
 H         -5.6519351683        2.0659226863       -1.9630469195
 H         -4.3789291608        2.2251421127       -3.1502146600
 C         -3.6422346147        1.9208758295       -1.1793182236
 H         -2.6643162367        2.0838769549       -1.6441310958
 H         -3.8960462464        2.8505109234       -0.6588468198
 H         -5.7026546648       -1.7131976052       -0.5970908007
 H         -7.3459160139       -1.0838372972       -0.5394838610
 H         -6.3241258852        0.0382967353        1.2185796895
 H         -6.1349233339        1.2439139838       -0.0657787554
 O         -4.0930691385       -0.7880200401        1.4177738138
 C         -2.7932196715       -1.1290988523        1.7426115506
 O         -2.6988351213       -2.0077900012        2.6221313248
 H          1.8998015958       -0.0786708726        0.0751358021
 C          1.6601970864        0.5613872357        0.9066990050
 C          0.5415656122        0.3044999363        1.6836925884
 C          0.2282925137        1.1831521246        2.7175016408
 C          1.0067145997        2.2989045957        2.9544372828
 C          2.1223996676        2.5528747874        2.1766259005
 C          2.4492491546        1.6781565970        1.1466998579
 N          3.6102739549        1.8858287109        0.3948314175
 S          3.8770072011        1.2420265522       -1.1177079615
 O          5.1039891924        1.8811567465       -1.5480079970
 O          2.7503430860        1.3938260908       -2.0067186695
 C          4.1961046215       -0.4838525994       -0.8140225551
 C          4.9365008221       -0.8500240499        0.2924001697
 C          5.1932389012       -2.1943775544        0.5098748803
 C          4.7136518803       -3.1443904014       -0.3790811447
 C          3.9789136776       -2.7601205890       -1.4899808560
 C          3.7181584636       -1.4171189712       -1.7123665357
 H          3.1422321504       -1.0718843525       -2.5569198479
 H          3.6068133605       -3.4997180501       -2.1812498951
 H          4.9119995479       -4.1903259116       -0.2057404514
 H          5.7643251355       -2.4976807795        1.3725367769
 H          5.2909237890       -0.0869116437        0.9648198102
 H          4.0775693710        2.7681974653        0.5348643158
 H          2.7327308492        3.4238913717        2.3604771307
 H          0.7449011207        2.9784033929        3.7517476667
 H         -0.6456509121        0.9849081094        3.3237405905
 C         -0.3395517185       -0.9011935826        1.4711069653
 H         -0.4523103405       -1.4065838859        2.4448523121
 C          0.2699518584       -1.9222406722        0.5210781428
 C         -0.5885852130       -2.9301263836       -0.1811658905
 C          0.0836633766       -1.8436853049       -0.9628637256
 H          0.9168604055       -2.1074489275       -1.5971776916
 H         -0.5146221661       -1.0337696252       -1.3504186461
 H         -1.6567475895       -2.8706553891       -0.0305099646
 H         -0.2177209526       -3.9391089388       -0.2782252937
 H          1.2350971527       -2.2759660350        0.8717063206
 O         -1.0765764925        1.2426292253       -0.3874747753
