  62
        -98.94464563
 C         -1.6850650187       -1.4612899451       -0.0565526692
 C         -1.6000569368       -0.2891350550       -0.8476133513
 C         -2.8808885064        0.3582147817       -1.1731317651
 C         -4.0292158089       -0.1769207895       -0.7218042510
 C         -5.3925369961        0.4165498180       -0.9242633464
 C         -5.7636535329        1.3566902856        0.2311709675
 C         -4.6764937003        2.3757803982        0.5737507696
 H         -5.0613106132        3.0032415385        1.3807293070
 H         -3.8021103563        1.8507243154        0.9662490440
 C         -4.2454463023        3.2639423373       -0.6017733263
 H         -5.0025412865        3.2333500214       -1.3863535990
 H         -4.1795965626        4.2971644123       -0.2542976146
 C         -2.8827667399        2.9092859078       -1.2003140094
 H         -2.5840264633        3.7210923734       -1.8694069286
 H         -2.1327464442        2.8529459778       -0.4061734956
 C         -2.8286400437        1.6065696061       -2.0081273000
 H         -3.6238152563        1.6044656324       -2.7565776615
 H         -1.8660155214        1.5815819933       -2.5271080013
 H         -5.9576677047        0.7527522035        1.1205553384
 H         -6.6844752761        1.8803917014       -0.0316822110
 H         -5.4115360531        0.9583660140       -1.8677306552
 H         -6.1191665436       -0.3964781535       -0.9667883472
 O         -4.0722990852       -1.3094118726        0.0249541942
 C         -2.9092015469       -1.9649799558        0.3898926475
 O         -3.0930652058       -2.9754278313        1.0984477233
 H          1.8479362277       -0.6767627636        0.2525191402
 C          1.3891783838       -0.6494245622        1.2243311241
 C          0.2368298901       -1.3788776047        1.4666440426
 C         -0.3364041667       -1.3237421834        2.7352508260
 C          0.2359553237       -0.5598382879        3.7335657082
 C          1.3808648396        0.1779551136        3.4827806048
 C          1.9547184980        0.1380935997        2.2188281421
 N          3.1245411149        0.8616367109        1.9286218875
 S          3.1274808616        1.8602147209        0.5723260502
 O          4.2035584134        2.7967307988        0.8296324979
 O          1.8263060234        2.4439385980        0.3501214747
 C          3.6123777373        0.7946469099       -0.7672649592
 C          4.8928884651        0.2773861090       -0.7388436250
 C          5.2984758721       -0.5625214620       -1.7630226289
 C          4.4211089587       -0.8665072578       -2.7934630714
 C          3.1410860808       -0.3343037310       -2.8082040850
 C          2.7266952443        0.5074253189       -1.7868299785
 H          1.7271766565        0.9131431893       -1.7505739900
 H          2.4549766444       -0.5740872564       -3.6053693606
 H          4.7347140422       -1.5229985612       -3.5900317775
 H          6.2930251113       -0.9786087410       -1.7551778772
 H          5.5427179624        0.5460976718        0.0772422162
 H          3.5079763950        1.3566077765        2.7219695985
 H          1.8248548305        0.7823446659        4.2598538216
 H         -0.2148519731       -0.5311156806        4.7143929249
 H         -1.2401196245       -1.8875481440        2.9230386353
 C         -0.4379971002       -2.2058337086        0.3979177689
 H         -0.7992351440       -3.1294515572        0.8711884221
 C          0.4699905034       -2.5703481132       -0.7571443452
 C          1.5719094822       -3.5621507315       -0.5395236997
 C          0.3779981212       -3.9363249744       -1.3642523814
 H          0.4974974715       -4.0330623201       -2.4327618610
 H         -0.3399616232       -4.6246110381       -0.9421629808
 H          2.5146148819       -3.4005105285       -1.0397356705
 H          1.6634149818       -3.9960035536        0.4447713730
 H          0.6614194151       -1.7436183551       -1.4286567326
 O         -0.5223041589        0.1966534805       -1.2774832608
