  62
        -98.93895704
 C         -2.4005845209       -1.1211163695       -0.0715510704
 C         -2.9267772708       -0.1650872196        0.8272017898
 C         -3.3508943805        1.1230725406        0.2534599101
 C         -3.1972332003        1.3223124710       -1.0687065798
 C         -3.5022888200        2.5867436712       -1.8209937195
 C         -2.3768845198        3.6341285610       -1.6750495792
 C         -1.6347314599        3.6137552704       -0.3376799291
 H         -1.2870931002        2.5973845603       -0.1355549793
 H         -0.7342647498        4.2258572703       -0.4429702989
 C         -2.4223514899        4.1481245203        0.8596184610
 H         -2.4997189897        5.2345315403        0.7662418613
 H         -1.8425426800        3.9339821099        1.7614086710
 C         -3.8371561700        3.6001365105        1.0349356907
 H         -4.4565692499        3.9176532209        0.2002101807
 H         -4.2572991000        4.0642195004        1.9323407708
 C         -3.9456800604        2.0897965005        1.2467007503
 H         -3.4821740905        1.8326445801        2.2054215803
 H         -5.0079281004        1.8349566807        1.3480603801
 H         -2.7928037296        4.6278219911       -1.8467868289
 H         -1.6352648798        3.4374475310       -2.4521232891
 H         -4.4587782500        2.9801151813       -1.4870731995
 H         -3.5971452200        2.3208032515       -2.8753746696
 O         -2.6631037305        0.3857965611       -1.8967937201
 C         -2.2271312008       -0.8409310691       -1.4271252503
 O         -1.7276339908       -1.5753664990       -2.2994448105
 O         -3.0218075810       -0.3727353099        2.0696966497
 C         -1.8851483013       -2.4386729897        0.4869080493
 C         -0.3787782013       -2.3935018100        0.4126216294
 C          0.3962585886       -3.2575689000       -0.3478437808
 C          1.7680088487       -3.0808855403       -0.4262065806
 C          2.3922099788       -2.0437629306        0.2433169797
 C          1.6247733289       -1.1815179206        1.0154724399
 C          0.2574494689       -1.3680495003        1.1032625697
 H         -0.3384501510       -0.6860286904        1.6980338799
 N          2.2503280891       -0.0899748109        1.6711266102
 S          2.5919865695        1.1829038093        0.6149540106
 O          2.7288357297        2.3561235490        1.4514147509
 O          1.6140997296        1.2629237898       -0.4472945994
 C          4.1830050894        0.7326416091       -0.0402040994
 C          5.2677394894        0.7516346287        0.8149712007
 C          6.5103078193        0.3811497385        0.3265865307
 C          6.6452151594        0.0003120089       -1.0004595994
 C          5.5462124494       -0.0118520007       -1.8459057794
 C          4.2997827395        0.3566990095       -1.3634471295
 H          3.4150404195        0.3563029698       -1.9803108995
 H          5.6524037795       -0.3087991004       -2.8768722395
 H          7.6128362893       -0.2889947312       -1.3789593593
 H          7.3673591793        0.3892440482        0.9804289008
 H          5.1157158694        1.0594244984        1.8359781908
 H          1.6841352191        0.2751814290        2.4260560303
 H          3.4578453789       -1.8961730008        0.1755315199
 H          2.3575483386       -3.7560911702       -1.0272347307
 H         -0.0759711315       -4.0570701597       -0.8944040310
 H         -2.1747084614       -2.4386752500        1.5477570292
 C         -2.5099660615       -3.6355279894       -0.1926939911
 C         -2.4987653818       -4.9662904296        0.4968985885
 C         -3.7814156716       -4.2042584693        0.3596502986
 H         -4.5265947217       -4.5653693989       -0.3329528415
 H         -4.1959178316       -3.7356371394        1.2403795587
 H         -2.3644995719       -5.8551716095       -0.1001899317
 H         -2.0418068219       -5.0173709500        1.4735429385
 H         -2.4001758214       -3.6144825391       -1.2701339211
