  62
        -98.94291170
 C          2.5004575181        0.8648811269        0.4493274527
 C          2.5650293091       -0.3552726469       -0.2652292559
 C          3.7277675835       -1.2055236039        0.0289302225
 C          4.6273290557       -0.8004343622        0.9440420136
 C          5.8825334373       -1.5422565875        1.2997434393
 C          7.0621373323       -1.0882541283        0.4284744501
 C          6.7504321717       -1.0618559243       -1.0678372844
 H          7.6627720474       -0.7562477206       -1.5846496447
 H          5.9987539642       -0.2932132529       -1.2617354518
 C          6.2635667215       -2.4013034613       -1.6382346390
 H          6.5235825123       -3.2109984887       -0.9555146097
 H          6.7843369280       -2.5910628350       -2.5791986752
 C          4.7646846788       -2.4547390172       -1.9398201051
 H          4.5692324986       -3.3516203188       -2.5336068151
 H          4.4825692869       -1.5918858223       -2.5484116709
 C          3.8393162511       -2.5051210474       -0.7174548810
 H          4.1563150420       -3.3080838278       -0.0489729222
 H          2.8298771014       -2.7316730557       -1.0731728960
 H          7.9056074469       -1.7555518291        0.6147501035
 H          7.3517773632       -0.0806393736        0.7355917795
 H          5.7148436997       -2.6102163057        1.1749400168
 H          6.1166727263       -1.3399774669        2.3462604033
 O          4.5182615217        0.3693531895        1.6251890105
 C          3.4603897771        1.2322080452        1.3916870511
 O          3.4818436499        2.2736403695        2.0791358393
 O          1.6998633969       -0.7160905253       -1.1049044742
 C          1.3474638446        1.8213490144        0.2049331322
 C          0.0330896343        1.1323119324        0.4821516774
 C         -0.1283274544        0.4563749953        1.6890556387
 C         -1.3161944000       -0.1807032784        1.9896063745
 C         -2.3731195401       -0.1573829305        1.0958391482
 C         -2.2300077502        0.5267583749       -0.1022676611
 C         -1.0342034943        1.1703266259       -0.4002166890
 H         -0.9404742213        1.6960861386       -1.3376992932
 N         -3.2943340362        0.5527612991       -1.0163721015
 S         -4.8440245825        0.8774916755       -0.4673001363
 O         -5.5452692645        1.4074663576       -1.6163475290
 O         -4.8243631530        1.7102423078        0.7126788750
 C         -5.5098089888       -0.7265441568       -0.0745961958
 C         -5.4965340032       -1.6961240534       -1.0580197424
 C         -6.0243794738       -2.9451773630       -0.7732770973
 C         -6.5565356720       -3.2015008297        0.4816851383
 C         -6.5651617024       -2.2166064075        1.4573463319
 C         -6.0376490194       -0.9651871232        1.1790368281
 H         -6.0194843847       -0.1706455722        1.9081629458
 H         -6.9794842698       -2.4177244618        2.4322661703
 H         -6.9670572171       -4.1746787917        0.7003180432
 H         -6.0190081685       -3.7138622483       -1.5292513112
 H         -5.0774446907       -1.4570741606       -2.0212027916
 H         -3.0935803452        1.0491740481       -1.8720269845
 H         -3.3008187075       -0.6568801529        1.3220990835
 H         -1.4214496102       -0.7045254856        2.9277202782
 H          0.6971110496        0.4357926895        2.3881953362
 H          1.4640496407        2.6327129803        0.9385638201
 C          1.4500554373        2.4077807816       -1.1879104762
 C          0.8881489481        3.7659071593       -1.4804001113
 C          2.3720492552        3.5657635614       -1.4177867275
 H          2.9373161453        3.6014621125       -2.3370284311
 H          2.9066871981        3.9506735348       -0.5614347207
 H          0.4372991960        3.9430968302       -2.4456186433
 H          0.4132317069        4.2965311850       -0.6687445744
 H          1.3957422882        1.6515039290       -1.9629548197
