  62
        -98.93705218
 C         -2.5539861535       -0.2698437730        0.1717756234
 C         -2.7231718407        0.8967547876        0.9609004100
 C         -2.4631817226        2.1763673513        0.2924941701
 C         -2.0949050193        2.1886358820       -1.0010968342
 C         -1.7904208393        3.4103528367       -1.8249957905
 C         -0.3487180358        3.9148524037       -1.6705703927
 C         -0.0398329360        4.5932595021       -0.3348637343
 H         -0.7860600300        5.3646717285       -0.1429760194
 H          0.9233471852        5.0960565169       -0.4422934992
 C          0.0301701475        3.6346223277        0.8625566905
 H          0.9165341877        3.8588786420        1.4600089155
 H          0.1383642756        2.6084050552        0.5024057138
 C         -1.1766775241        3.7062186056        1.7989704367
 H         -1.2213512503        4.6929736340        2.2646245689
 H         -1.0410072414        2.9661379486        2.5918718352
 C         -2.5234560024        3.4263264655        1.1178671941
 H         -2.8192962843        4.2752695009        0.5021796435
 H         -3.2766063986        3.2770783007        1.8952695266
 H         -0.1684475697        4.6355527369       -2.4715051190
 H          0.3298477563        3.0718467592       -1.8237206533
 H         -2.4880236715        4.2088006012       -1.5711545106
 H         -1.9473360610        3.1290234211       -2.8685856617
 O         -1.9586462896        1.0502045331       -1.7309026031
 C         -2.1387709676       -0.2049376317       -1.1603217802
 O         -1.9019943503       -1.1454181122       -1.9401674215
 O         -3.0570247991        0.8677809993        2.1754671621
 C         -2.6869288247       -1.6130087618        0.8703738578
 C         -1.4335123593       -2.4131717655        0.6136410939
 C         -1.4132002747       -3.6665999965        0.0192404086
 C         -0.2087876191       -4.3019785775       -0.2365511939
 C          0.9934809197       -3.7061104524        0.0939191733
 C          0.9827751366       -2.4534871968        0.6939007284
 C         -0.2219428964       -1.8245757379        0.9579804288
 H         -0.2267809455       -0.8432128004        1.4184617975
 N          2.2059035874       -1.8407323783        1.0236347450
 S          3.3158241212       -1.6539863171       -0.2414043507
 O          2.6478441673       -1.8137612879       -1.5101930830
 O          4.4234614711       -2.5469039392        0.0029655292
 C          3.8427515317        0.0358545723       -0.0289569562
 C          5.0259460749        0.3184762861        0.6252047803
 C          5.3922451335        1.6441167709        0.8002446783
 C          4.5734184550        2.6563770300        0.3233656113
 C          3.3878443854        2.3566488626       -0.3318920385
 C          3.0153293183        1.0340495844       -0.5088589569
 H          2.1051802178        0.7530201956       -1.0180967223
 H          2.7522904479        3.1446045094       -0.7027811765
 H          4.8595700845        3.6871953158        0.4594578975
 H          6.3134836950        1.8823490714        1.3067835858
 H          5.6310771077       -0.5025582459        0.9729763585
 H          2.0782248239       -0.9691645007        1.5192670535
 H          1.9415550407       -4.1745776462       -0.1218777082
 H         -0.2080726882       -5.2713863885       -0.7120203767
 H         -2.3381421275       -4.1349796240       -0.2748740128
 H         -2.7082971631       -1.3548952548        1.9430296484
 C         -3.9736422583       -2.3716234348        0.5920144565
 C         -5.2255370707       -1.6447746771        0.2030811025
 C         -4.5400883616       -2.5378299101       -0.7849763747
 H         -5.0086362476       -3.4795207693       -1.0321701657
 H         -4.0033191351       -2.0894301867       -1.6054268344
 H         -6.1627884354       -1.9685555642        0.6300812265
 H         -5.1566055849       -0.5764311516        0.0569549475
 H         -4.0987764907       -3.2106475324        1.2700063991
