  62
        -98.93385179
 C         -2.5759621189       -0.4955584839        0.5305383210
 C         -2.2564437240        0.2159170241       -0.6491487198
 C         -2.0061883238        1.6617257736       -0.5022114066
 C         -2.1040939025        2.2222092419        0.7163329919
 C         -1.8407593261        3.6474984152        1.1327505770
 C         -2.3304766125        4.7626362312        0.1976780727
 C         -1.1987361780        5.4724330565       -0.5480488565
 H         -1.5347922168        6.4755836080       -0.8197710221
 H         -0.3523602102        5.5839515725        0.1327085036
 C         -0.7258552438        4.7836959030       -1.8270296332
 H         -1.4905219111        4.8906688465       -2.5995712743
 H          0.1658620100        5.3094762517       -2.1760838775
 C         -0.3924315084        3.2969859637       -1.6881300221
 H          0.1540084359        3.1000045996       -0.7648016042
 H          0.2771704600        3.0214638175       -2.5065053831
 C         -1.6254226686        2.3832369385       -1.7649339920
 H         -2.4877300352        2.9454466548       -2.1344551848
 H         -1.4427270592        1.5866088281       -2.4930464578
 H         -3.0599893405        4.3649107748       -0.5053538845
 H         -2.8432616701        5.5051065955        0.8113804092
 H         -2.3178021961        3.7478233033        2.1107765290
 H         -0.7645589916        3.7486640004        1.2999724984
 O         -2.4394017798        1.4990064300        1.8244018754
 C         -2.6396195450        0.1324640051        1.7713412758
 O         -2.8632162243       -0.4014708710        2.8783814392
 H         -0.3014305834       -1.3388351134        1.3705080337
 C         -0.2258999846       -2.0585858150        0.5628309518
 C         -1.3874090545       -2.5588813034       -0.0132031693
 C         -1.2641065054       -3.4802700658       -1.0440285494
 C         -0.0132696431       -3.8491832777       -1.5114203938
 C          1.1374203275       -3.3062734743       -0.9684478406
 C          1.0225641333       -2.4120850078        0.0848321246
 N          2.1977798254       -1.8009326507        0.6168209439
 S          2.4710709514       -0.3002099935       -0.1261222898
 O          1.7061555429        0.7332893536        0.5430714937
 O          2.2654574681       -0.4532909154       -1.5430167486
 C          4.2092105929       -0.0786452296        0.2067361091
 C          5.1056024580       -0.8536116022       -0.5037100134
 C          6.4589887432       -0.7294894105       -0.2355696437
 C          6.8913877673        0.1619174295        0.7354539711
 C          5.9799393240        0.9326899541        1.4403949327
 C          4.6239644458        0.8114736608        1.1772952201
 H          3.8797595298        1.3930501485        1.6977200699
 H          6.3183049833        1.6260893271        2.1935154404
 H          7.9454126024        0.2577793513        0.9429804595
 H          7.1708543846       -1.3266249386       -0.7822618206
 H          4.7213868094       -1.5259673235       -1.2525515942
 H          2.0904894939       -1.6132610760        1.6065001569
 H          2.1135668667       -3.5529197780       -1.3520307343
 H          0.0631019992       -4.5537054344       -2.3255787742
 H         -2.1499146107       -3.8910778632       -1.5005971806
 C         -2.7025180496       -2.0095937599        0.4876864931
 H         -2.8447714769       -2.3347583960        1.5287007006
 C         -3.8984633450       -2.4413456411       -0.3319359586
 C         -4.5625948257       -3.7560645700       -0.0556348646
 C         -5.2475695877       -2.4771100343        0.3185511476
 H         -6.1046212692       -2.1610643596       -0.2566569303
 H         -5.3005896763       -2.2091208272        1.3638377115
 H         -4.9544328818       -4.3203678764       -0.8881858946
 H         -4.1565990411       -4.3636611674        0.7388723366
 H         -3.8446705938       -2.0958692034       -1.3576184129
 O         -2.1693672083       -0.3338609778       -1.7789244921
