  62
        -98.94529079
 C         -2.3338524301       -1.0148678911        0.1419032566
 C         -1.8866249163       -0.0857655285       -0.8288688808
 C         -2.4799290475        1.2573126573       -0.7459920039
 C         -3.3920864680        1.5195705138        0.2079187817
 C         -4.0342623996        2.8569969298        0.4359054179
 C         -3.2334680205        3.6920903234        1.4449959639
 C         -1.7360346155        3.7542459057        1.1427351726
 H         -1.2765182874        4.3900936614        1.9028492933
 H         -1.3078130482        2.7555468783        1.2586794318
 C         -1.3931323684        4.2929926519       -0.2531595191
 H         -2.2494078334        4.8310588342       -0.6612570082
 H         -0.5751747257        5.0103150292       -0.1586597993
 C         -0.9400400144        3.2262334345       -1.2518744028
 H         -0.1408625356        2.6248619066       -0.8110392817
 H         -0.5263198728        3.7357252528       -2.1257063145
 C         -2.0305856644        2.2738757743       -1.7573229342
 H         -2.8804239263        2.8491387877       -2.1298889471
 H         -1.6094390843        1.7008443069       -2.5883034631
 H         -3.6451617067        4.7027736361        1.4619722273
 H         -3.3651500940        3.2557541090        2.4380833686
 H         -4.1077891310        3.3857313651       -0.5123086776
 H         -5.0389369793        2.6936814734        0.8294788501
 O         -3.7999934156        0.5983368976        1.1187028276
 C         -3.2775456246       -0.6854999155        1.1137548505
 O         -3.7224097100       -1.4264376443        2.0147266859
 H         -0.2046575979       -0.7451610638        1.4822609587
 C          0.3729387290       -1.5051358443        0.9698395497
 C         -0.2885007367       -2.4580734949        0.2064939466
 C          0.4693870433       -3.4285599373       -0.4379731698
 C          1.8475202433       -3.4417084348       -0.3135070774
 C          2.5014070168       -2.4886324327        0.4448340792
 C          1.7560854413       -1.5042477131        1.0815336731
 N          2.3993510719       -0.5264265804        1.8584570072
 S          3.7946067283        0.2217799855        1.3206080381
 O          4.8752668882       -0.7323361818        1.3225786737
 O          3.9518349628        1.3658609152        2.1896119789
 C          3.4698453559        0.7665245533       -0.3452710905
 C          2.8707363514        1.9975458045       -0.5243149175
 C          2.6000002477        2.4315763257       -1.8114649211
 C          2.9143906261        1.6227826611       -2.8924178159
 C          3.5134146298        0.3886725731       -2.6962545212
 C          3.8003289834       -0.0448025670       -1.4118707432
 H          4.2832166062       -0.9890398385       -1.2246475499
 H          3.7593468989       -0.2374452942       -3.5387064848
 H          2.6937028046        1.9586758477       -3.8932578557
 H          2.1434632469        3.3957414555       -1.9669001076
 H          2.6461380939        2.5991939663        0.3422754778
 H          1.7715756494        0.1489093410        2.2677891489
 H          3.5725332283       -2.4954793553        0.5629653176
 H          2.4214837868       -4.2074648798       -0.8127117948
 H         -0.0211289800       -4.1789802107       -1.0357867579
 C         -1.7967014407       -2.4327867301        0.1320206683
 H         -2.1879298237       -2.9138467054        1.0413820062
 C         -2.3393753712       -3.1703492548       -1.0774511644
 C         -2.6676229864       -4.6302695670       -0.9996394181
 C         -3.7694507634       -3.6170702211       -1.0652214498
 H         -4.3450044525       -3.5341607070       -1.9749272100
 H         -4.3401435729       -3.4202568324       -0.1688647836
 H         -2.5011789249       -5.1331129580       -0.0588094117
 H         -2.4895946399       -5.2462482004       -1.8683827536
 H         -1.9449978464       -2.7814630915       -2.0093313036
 O         -1.0360707592       -0.3598877471       -1.7140320937
