  62
        -98.94109997
 C          2.1995625432       -1.0162360310       -0.6619330978
 C          2.1783071121       -0.1127736575        0.4301173222
 C          3.0454774293        1.0674488989        0.2958031794
 C          3.7391758774        1.2702925075       -0.8377452508
 C          4.6513582055        2.4315992308       -1.1260846248
 C          6.0717202080        2.2624748673       -0.5690988702
 C          6.1966489440        2.3955323674        0.9492548412
 H          7.2614260056        2.4757737246        1.1766730459
 H          5.7241246696        3.3240467174        1.2713002113
 C          5.6110969083        1.2169904076        1.7397028468
 H          5.4800637863        0.3608076810        1.0739516301
 H          6.3161488341        0.9128362803        2.5164092466
 C          4.2795467468        1.5158330237        2.4289158314
 H          4.4255337481        2.2824166453        3.1930721881
 H          3.9383277140        0.6051117165        2.9277683414
 C          3.1681295014        1.9801248768        1.4783264229
 H          2.2172667484        1.9534383301        2.0172057371
 H          3.3542732169        3.0034171399        1.1521469462
 H          6.4561338066        1.2891040317       -0.8825935592
 H          6.6953933195        3.0306541275       -1.0319909213
 H          4.7150357682        2.5141123029       -2.2133573415
 H          4.2112221191        3.3490722609       -0.7338275859
 O          3.6659914185        0.4214698520       -1.8981197400
 C          2.9090593736       -0.7380856618       -1.8326279778
 O          2.9358002375       -1.4223961586       -2.8757042433
 O          1.4826853605       -0.2688988979        1.4656029435
 C          1.3803370227       -2.2960701674       -0.6544423781
 C         -0.0192966284       -2.0024428011       -0.1717852405
 C         -0.6013340120       -2.6045274808        0.9350834158
 C         -1.8866063351       -2.2645854992        1.3200603157
 C         -2.6182409843       -1.3285715820        0.6128920022
 C         -2.0439966444       -0.7170035672       -0.4939840897
 C         -0.7592700582       -1.0635130305       -0.8807171875
 H         -0.3081614923       -0.5812954354       -1.7407420410
 N         -2.7822469204        0.2289181995       -1.2288395865
 S         -3.5186905470        1.4863583761       -0.3929642440
 O         -3.6665763427        2.5451386108       -1.3690732306
 O         -2.8028396789        1.8230078914        0.8154398797
 C         -5.1293001411        0.8398590020        0.0062850151
 C         -5.5622713088        0.8322048333        1.3177231694
 C         -6.8219393936        0.3291746603        1.6044324037
 C         -7.6220099510       -0.1532372227        0.5800364525
 C         -7.1735917570       -0.1351234700       -0.7324174370
 C         -5.9159754670        0.3671969875       -1.0259441896
 H         -5.5310682848        0.4026572542       -2.0313702046
 H         -7.7987921650       -0.5105772737       -1.5264038832
 H         -8.6009306644       -0.5455450300        0.8059560408
 H         -7.1721154260        0.3149825089        2.6240403681
 H         -4.9019253814        1.2116226959        2.0814110483
 H         -2.2875519473        0.5882894959       -2.0327355110
 H         -3.6165275227       -1.0574376472        0.9151957909
 H         -2.3241895072       -2.7336996841        2.1880850807
 H         -0.0390622346       -3.3178731470        1.5145844668
 H          1.3118377062       -2.5939855470       -1.7140872075
 C          2.0434274962       -3.4538534431        0.0767742852
 C          3.5365007404       -3.5543243643        0.1639654561
 C          2.7305840597       -3.2833251478        1.3968743452
 H          2.6362288081       -4.0722703348        2.1287593521
 H          2.7543962607       -2.2934340451        1.8236121866
 H          3.9929292514       -4.5257755819        0.0473761684
 H          4.1175682278       -2.7466636540       -0.2577628353
 H          1.5102239902       -4.3866432912       -0.0785418567
