  62
        -98.94659007
 C          0.1675001188       -1.9496323640        0.6367386738
 C         -0.4771321171       -2.2881253915       -0.5774631576
 C         -1.9306616949       -2.0896500633       -0.6006375093
 C         -2.5611080389       -1.6213386042        0.4916454473
 C         -4.0432871255       -1.3998428008        0.6257936068
 C         -4.5241695283       -0.0509173926        0.0750089916
 C         -4.5191838476        0.0768428249       -1.4482711212
 H         -5.0544371401       -0.7653891372       -1.8877092594
 H         -5.0776641546        0.9815053724       -1.6951369925
 C         -3.1175869100        0.1782046127       -2.0664676581
 H         -3.0997061628        0.9846059032       -2.8025841640
 H         -2.3928627570        0.4396844661       -1.2910912186
 C         -2.6499897050       -1.0925121396       -2.7766847388
 H         -3.2847310537       -1.2822501209       -3.6452840401
 H         -1.6290395024       -0.9320218288       -3.1330898496
 C         -2.6491615180       -2.3451290513       -1.8906097019
 H         -3.6701776165       -2.6763661386       -1.7030937021
 H         -2.1136756191       -3.1381688003       -2.4182670562
 H         -3.8981945805        0.7347775666        0.5003419668
 H         -5.5466339002        0.0993503758        0.4286256877
 H         -4.5788652132       -2.2116259466        0.1326486366
 H         -4.2675107991       -1.4347718263        1.6939600797
 O         -1.9033162609       -1.3079565587        1.6404249515
 C         -0.5263140386       -1.4373964538        1.7318503856
 O         -0.0461008351       -1.0714502925        2.8245874046
 H          1.1086686074        0.4829233724        0.3152337008
 C          1.8669148241        0.1422872595       -0.3755624194
 C          2.3038908700       -1.1752318177       -0.3092060491
 C          3.2790083917       -1.5973164224       -1.2023107857
 C          3.7858122037       -0.7213018891       -2.1470193370
 C          3.3545395234        0.5910026616       -2.2028391759
 C          2.3892231574        1.0277984222       -1.3022431092
 N          1.9240091753        2.3523897342       -1.3162983082
 S          1.7154264479        3.1559865544        0.1407028490
 O          1.9085072673        4.5528228616       -0.1903419681
 O          2.5810606800        2.6205627769        1.1645808960
 C          0.0046131157        2.9309859697        0.5779127467
 C         -0.9537478696        3.4927264006       -0.2438244322
 C         -2.2846667302        3.4210313113        0.1319094325
 C         -2.6342823379        2.7945200846        1.3195999114
 C         -1.6638709965        2.2143828398        2.1217472056
 C         -0.3300835763        2.2857338850        1.7512775226
 H          0.4474408515        1.8476877659        2.3586778904
 H         -1.9304308062        1.7019254430        3.0327750782
 H         -3.6676615950        2.7675512841        1.6292284152
 H         -3.0451144030        3.8582880494       -0.4946811638
 H         -0.6391874048        3.9892941114       -1.1464977417
 H          2.3672248302        2.9469718295       -2.0019584461
 H          3.7567396136        1.2738931316       -2.9359006491
 H          4.5343355948       -1.0643108954       -2.8452487914
 H          3.6349551054       -2.6137362693       -1.1675420863
 C          1.6774674140       -2.0650976800        0.7377993838
 H          1.9533734304       -1.6679484486        1.7261971126
 C          2.1114300586       -3.5128284600        0.6531629205
 C          3.3905983540       -3.9538581815        1.2967637694
 C          2.0749582821       -4.3526742348        1.8930391240
 H          1.7602905188       -5.3820924053        1.8101588127
 H          1.7595002314       -3.8723332464        2.8081327769
 H          3.9805566615       -4.7135953071        0.8066374233
 H          3.9745163760       -3.2059792972        1.8121756524
 H          1.8160934766       -3.9823501803       -0.2778322870
 O          0.1250286163       -2.7349741899       -1.5878540474
