  62
        -98.93582040
 C          2.3741361684        0.5079992190        0.9046273325
 C          3.4404694334        1.0784275509        0.1648983038
 C          4.7278656079        0.3665813663        0.2460513812
 C          4.8305254393       -0.7426754129        0.9983795175
 C          6.0612486412       -1.5936111488        1.1146967697
 C          6.0629923944       -2.7122419425        0.0633318612
 C          5.7648617504       -2.2265026035       -1.3551941973
 H          5.8236562265       -3.0947721973       -2.0151012361
 H          4.7362227918       -1.8607261841       -1.3972288515
 C          6.7136987673       -1.1320830452       -1.8636352928
 H          7.0134576228       -1.3756919885       -2.8850668691
 H          7.6190079184       -1.1152643470       -1.2558228222
 C          6.1028914169        0.2699701342       -1.9011496652
 H          6.7727401887        0.9174498672       -2.4731895726
 H          5.1472545797        0.2388244882       -2.4303749727
 C          5.8767919770        0.9364195301       -0.5381529808
 H          6.7977806192        0.9005368436        0.0469844031
 H          5.6239754806        1.9851615516       -0.7195111565
 H          5.3037398359       -3.4475506464        0.3397846034
 H          7.0369720480       -3.2045266889        0.0847706230
 H          6.9428295233       -0.9668016519        0.9956635822
 H          6.0761480542       -2.0416846243        2.1096303031
 O          3.7909656235       -1.2492681232        1.7107937828
 C          2.5459893480       -0.6472530376        1.6722401813
 O          1.6813512375       -1.2222526876        2.3655624466
 H         -1.5241416408        0.0741203080        1.0414586205
 C         -1.1424920249        0.1028831688        0.0312797267
 C          0.1371770501        0.5772272889       -0.2143615625
 C          0.6118001033        0.5773009249       -1.5225397225
 C         -0.1855625516        0.1208894386       -2.5560580659
 C         -1.4720314054       -0.3258650967       -2.3105946901
 C         -1.9522501544       -0.3379961949       -1.0063725537
 N         -3.2450766393       -0.8024113887       -0.7184440070
 S         -4.1012015773       -0.0292511785        0.5162257847
 O         -3.9096306637        1.4003630932        0.4245865114
 O         -3.7560166955       -0.6396174716        1.7754783446
 C         -5.7728178958       -0.4639034818        0.0748334626
 C         -6.2472794227       -1.7133021093        0.4278491109
 C         -7.5352339337       -2.0685522828        0.0600017896
 C         -8.3222881146       -1.1745100449       -0.6509896528
 C         -7.8328603496        0.0762097739       -0.9963636544
 C         -6.5450577720        0.4378169307       -0.6327539812
 H         -6.1253180404        1.4017597708       -0.8716276013
 H         -8.4483663497        0.7700567821       -1.5458820702
 H         -9.3247122974       -1.4534558867       -0.9349028223
 H         -7.9201816760       -3.0388316372        0.3293809194
 H         -5.6025488693       -2.3700351356        0.9885643333
 H         -3.8106261421       -0.9345447280       -1.5459040637
 H         -2.0970930862       -0.6694947568       -3.1207470033
 H          0.1938728315        0.1270510451       -3.5668842297
 H          1.6046610764        0.9513867813       -1.7203292679
 C          0.9723142253        1.0937345737        0.9289197098
 H          0.5175317145        0.7150638456        1.8592454133
 C          0.9566566077        2.6146901324        1.0154234694
 C          0.5456992079        3.5081684499       -0.1117199716
 C         -0.3520564298        3.3468592924        1.0759039253
 H         -0.4505176424        4.1696828402        1.7682031542
 H         -1.2582520006        2.7704377733        0.9498171032
 H          1.0860518284        4.4340709805       -0.2358615302
 H          0.2463268255        3.0521215209       -1.0419042025
 H          1.7491844986        2.9872176334        1.6571652751
 O          3.3461826837        2.1189509021       -0.5337839438
