  62
        -98.93132059
 C          2.2327548773       -0.4453772066        0.2999143098
 C          3.4932822654       -0.9365092358        0.7182875388
 C          4.6800315496       -0.4891731808       -0.0362828084
 C          4.5004701568        0.3146263447       -1.1005165090
 C          5.5444859411        0.9299279494       -1.9942338453
 C          6.2657403558        2.1151033337       -1.3332030647
 C          6.6913927556        1.8809996752        0.1137332301
 H          7.0990576384        2.8206721909        0.4958167134
 H          5.8099523341        1.6445681633        0.7126449917
 C          7.7481645500        0.7971898030        0.3140105198
 H          8.0294396536        0.8112449586        1.3701058019
 H          8.6361998179        1.0509056991       -0.2690328141
 C          7.3218075428       -0.6287598765       -0.0429926074
 H          8.0629689376       -1.3074158738        0.3890597200
 H          7.3456593557       -0.7900938286       -1.1173668605
 C          5.9676600367       -1.0477691505        0.5203869874
 H          5.8750303948       -2.1371203866        0.4344131831
 H          5.9473146352       -0.8437173342        1.5971488313
 H          5.5886900737        2.9728537076       -1.3466146811
 H          7.1399237395        2.3659485058       -1.9363570987
 H          5.0212034318        1.2922332210       -2.8818547930
 H          6.2556951162        0.1743227365       -2.3141712511
 O          3.2619907933        0.7210583921       -1.5000220390
 C          2.1036323449        0.3631807162       -0.8295548512
 O          1.0646638323        0.8186722579       -1.3422158909
 O          3.6316782388       -1.7236972228        1.6934689345
 C          1.0115310857       -0.8809227862        1.0881651447
 C         -0.0883044881       -1.3326302978        0.1620982555
 C          0.1096501498       -2.4778972812       -0.6055323841
 C         -0.8725052424       -2.9320758125       -1.4636146977
 C         -2.0809607845       -2.2647938680       -1.5611235461
 C         -2.2841656572       -1.1153524725       -0.8074838613
 C         -1.2906197019       -0.6551768759        0.0454126498
 H         -1.4683731254        0.2504491162        0.6009983760
 N         -3.4870087771       -0.3987627734       -0.9042995773
 S         -4.0877663384        0.3568273446        0.4785197901
 O         -3.4955763144        1.6645821747        0.6039853056
 O         -3.9474222774       -0.5186727410        1.6211458267
 C         -5.8082629575        0.5176943245        0.0348620905
 C         -6.1933876018        1.5796450374       -0.7616775044
 C         -7.5237550253        1.6896251300       -1.1340025973
 C         -8.4416089079        0.7412259792       -0.7071889907
 C         -8.0407585296       -0.3178185201        0.0933559298
 C         -6.7114999567       -0.4345597366        0.4683333683
 H         -6.3556172672       -1.2353589362        1.0963982255
 H         -8.7571711147       -1.0513129488        0.4265094376
 H         -9.4764415638        0.8300243838       -0.9978506646
 H         -7.8394220415        2.5134853914       -1.7535569038
 H         -5.4462583333        2.2962849216       -1.0610853988
 H         -4.2070118036       -0.8957923123       -1.4099627360
 H         -2.8533564473       -2.6224212456       -2.2251487397
 H         -0.7021641606       -3.8197643265       -2.0542959909
 H          1.0515314974       -3.0037092795       -0.5226463993
 H          1.3539305261       -1.7613019919        1.6587556535
 C          0.5364254263        0.1388149855        2.1121875824
 C          1.5058615250        1.0359582844        2.8197185546
 C          0.5307903982        1.6115786619        1.8390084340
 H         -0.2994056608        2.1950925981        2.2110193096
 H          0.8953896398        1.9444216769        0.8795931369
 H          1.3555328290        1.2279955975        3.8713554980
 H          2.5444517550        0.9747578100        2.5288028988
 H         -0.2892344174       -0.2433323013        2.7068943084
