  62
        -98.94186864
 C         -2.7771807725       -0.2711651309       -0.2511242704
 C         -2.0383037294        0.5514761840       -1.1361235332
 C         -2.0270460529        1.9882531603       -0.8245536866
 C         -2.7146132657        2.4460698128        0.2357777726
 C         -2.7501705861        3.8759328378        0.6893405555
 C         -1.6590859519        4.1641085614        1.7294700655
 C         -0.2644282917        3.6850491669        1.3245474759
 H          0.4257110108        3.9963260025        2.1124017399
 H         -0.2414355589        2.5921433640        1.3039515918
 C          0.2296298370        4.2208068088       -0.0261889721
 H          1.2706315016        4.5310643854        0.0854481640
 H         -0.3455707598        5.1030821548       -0.3110477817
 C          0.1887582526        3.1932308662       -1.1589742561
 H          0.7938664743        3.5724542216       -1.9873577118
 H          0.6419669615        2.2614500126       -0.8088084574
 C         -1.2057126192        2.8763379401       -1.7159189642
 H         -1.7365230146        3.8052833480       -1.9342094599
 H         -1.0763103782        2.3254797883       -2.6520431938
 H         -1.9308741993        3.6677123185        2.6640574702
 H         -1.6347058958        5.2404682984        1.9111405024
 H         -2.6249606575        4.5274187391       -0.1733343200
 H         -3.7258391090        4.0673881018        1.1397135837
 O         -3.4422925914        1.6344324863        1.0448444849
 C         -3.4638282826        0.2667288946        0.8425637963
 O         -4.1367914551       -0.3613395042        1.6851784202
 H         -0.2767866219       -1.4200502042       -1.1649850161
 C         -0.3246045621       -2.0186659746       -0.2674600893
 C         -1.5621386874       -2.3429803055        0.2697110142
 C         -1.5985082307       -3.1001277985        1.4344653666
 C         -0.4261162092       -3.5023677029        2.0521623191
 C          0.8053755966       -3.1395687058        1.5350363473
 C          0.8477377488       -2.3883199095        0.3694068040
 N          2.1010462410       -1.9322304757       -0.1267392981
 S          2.6012658407       -0.5870443211        0.7818292536
 O          2.9106086313       -1.0471597891        2.1123989676
 O          1.6225469497        0.4742289836        0.6878948303
 C          4.1013309293       -0.1280263990       -0.0642717782
 C          4.0901236324        0.9373211254       -0.9432331191
 C          5.2573641658        1.2612775832       -1.6174122887
 C          6.4065868713        0.5151677777       -1.4050156614
 C          6.4007688928       -0.5535384323       -0.5205931768
 C          5.2380823247       -0.8815061488        0.1577576023
 H          5.1863436241       -1.6969203847        0.8597520305
 H          7.2968560884       -1.1303776377       -0.3581033689
 H          7.3129063858        0.7695880475       -1.9314619948
 H          5.2639924291        2.0924286780       -2.3041245051
 H          3.1747264889        1.4928213393       -1.0742733295
 H          1.9952163659       -1.6135757519       -1.0838208364
 H          1.7247232641       -3.4012406798        2.0326313085
 H         -0.4724759744       -4.0859261091        2.9593044016
 H         -2.5548383240       -3.3462126845        1.8733041633
 C         -2.8220009833       -1.7910797208       -0.3541308597
 H         -3.6720891612       -2.1088328809        0.2641564437
 C         -3.0329114814       -2.3066944761       -1.7630198946
 C         -3.5630332084       -3.6950448081       -1.9525651700
 C         -4.4290497010       -2.5125313536       -2.2649273224
 H         -4.6425224014       -2.2844830830       -3.2982707226
 H         -5.2410201810       -2.2817789890       -1.5904933060
 H         -3.1811482659       -4.2837065510       -2.7723348195
 H         -3.7901504012       -4.2687206685       -1.0667095195
 H         -2.3003890607       -1.9442669035       -2.4713389290
 O         -1.4092663075        0.1349569669       -2.1471266093
