  62
        -98.93874919
 C          1.0357734400        1.1454001403       -0.6104889604
 C          2.1670923003        1.4087643004        0.2035049792
 C          3.0367548602        0.2684242104        0.5217005294
 C          2.7020117699       -0.9519088597        0.0659441400
 C          3.5103836197       -2.2052012798        0.2499271702
 C          4.7069246694       -2.2110496104       -0.7229509701
 C          6.0738190896       -2.1387315103       -0.0420932305
 H          6.3093865396       -3.1153205002        0.3860232498
 H          6.8146369195       -1.9307122208       -0.8169528508
 C          6.2103509601       -1.0952078099        1.0706596890
 H          7.2778554402       -0.9817024700        1.2711735687
 H          5.7603573003       -1.4762210095        1.9887687793
 C          5.6156032003        0.2867801000        0.7706557387
 H          5.5617870200        0.4575293096       -0.3046504714
 H          6.2892518105        1.0423945801        1.1798577082
 C          4.2305060205        0.5383159805        1.3956036490
 H          4.1378473307       -0.0327172191        2.3241852492
 H          4.1509008407        1.5982672206        1.6554139786
 H          4.5943882594       -1.3673257006       -1.4067936504
 H          4.6761041491       -3.1159251506       -1.3315868697
 H          2.8507366095       -3.0496563198        0.0486279407
 H          3.8515398700       -2.2717115195        1.2808439602
 O          1.6055037096       -1.1722171599       -0.6995568196
 C          0.7391118897       -0.1448854199       -1.0498307198
 O         -0.2196399106       -0.5284592800       -1.7475531594
 O          2.4403070906        2.5598139405        0.6424004487
 C          0.1223293302        2.3265992103       -0.8946998806
 C         -0.9593725595        2.3947706309        0.1578732997
 C         -1.1739100891        3.5503266512        0.8993049093
 C         -2.1376148089        3.5788918818        1.8920219895
 C         -2.8820508490        2.4499034320        2.1827885202
 C         -2.6740299294        1.2899124117        1.4452473406
 C         -1.7418186697        1.2795313111        0.4198745003
 H         -1.5966783700        0.3773169409       -0.1515340394
 N         -3.3928530895        0.1155050619        1.7127111213
 S         -2.6052214598       -1.3612678383        1.5929160916
 O         -3.3746012997       -2.2422333678        2.4513835422
 O         -1.2015016297       -1.2483075584        1.9200956612
 C         -2.8434784203       -1.8843948689       -0.0896175481
 C         -1.9035412606       -2.7148190493       -0.6635672381
 C         -2.1148884811       -3.1756145597       -1.9528790978
 C         -3.2562763312       -2.7985938898       -2.6411697276
 C         -4.1922641809       -1.9644612594       -2.0492262677
 C         -3.9893191304       -1.5037319690       -0.7588649479
 H         -4.6919296302       -0.8492652086       -0.2702178380
 H         -5.0768571810       -1.6689042395       -2.5904217076
 H         -3.4135473315       -3.1532002802       -3.6478077575
 H         -1.3806894613       -3.8147796600       -2.4164413778
 H         -1.0179254905       -2.9679628492       -0.1019120382
 H         -3.9931107693        0.1536403023        2.5239910914
 H         -3.6114337487        2.4604341224        2.9783888204
 H         -2.2952508086        4.4821984120        2.4615640492
 H         -0.5650793391        4.4218473910        0.7095125788
 H          0.7536177503        3.2187575502       -0.7814369411
 C         -0.4823336802        2.3373108699       -2.2841742504
 C         -0.9466324802        3.6389221097       -2.8635238808
 C          0.2758647696        2.9676234893       -3.4120248809
 H          0.2227175792        2.5068067589       -4.3866961607
 H          1.2399217497        3.3999195692       -3.1862009613
 H         -1.8437679503        3.6428472596       -3.4628419906
 H         -0.8104706199        4.5295623999       -2.2691145312
 H         -1.0598918504        1.4500644399       -2.5069123999
