  62
        -98.93538272
 C         -2.7162233729       -0.8752072671       -0.2830796238
 C         -2.1209083712        0.1505673685       -1.0534833485
 C         -2.5568055001        1.5318818315       -0.7689296428
 C         -3.5202146926        1.7526518856        0.1437494553
 C         -4.1971629001        3.0278428108        0.6026314884
 C         -3.6383062865        4.3915200024        0.2070754104
 C         -2.3018190370        4.7467045971        0.8617284496
 H         -1.9155484757        5.6526227199        0.3902770952
 H         -2.4841336553        4.9722220365        1.9154690847
 C         -1.2281447446        3.6620486245        0.8104926996
 H         -1.5841377795        2.7643703782        1.3209686384
 H         -0.3586175891        4.0164528574        1.3711196302
 C         -0.7432762333        3.2744263589       -0.5843957782
 H          0.0829156676        2.5687963575       -0.4504121758
 H         -0.3545681780        4.1571872112       -1.0968604512
 C         -1.7966178178        2.6105596373       -1.4854759016
 H         -2.4691225922        3.3490517747       -1.9139009493
 H         -1.2745389194        2.1210251501       -2.3127218794
 H         -4.3709951913        5.1352842993        0.5315332139
 H         -3.5719307894        4.4680684065       -0.8742315182
 H         -4.2485812643        2.9638815960        1.6943087731
 H         -5.2293580777        2.9583256445        0.2420573107
 O         -4.1141286961        0.7227732902        0.8168233681
 C         -3.7040810878       -0.5864246000        0.6615316385
 O         -4.2985967563       -1.3973311830        1.3999683543
 O         -1.2631624576       -0.0471957220       -1.9558149214
 C         -2.2922405166       -2.3356151352       -0.3673204546
 C         -0.9812903230       -2.4904264275        0.3666977638
 C         -0.9338838070       -3.0805561272        1.6246507298
 C          0.2539056129       -3.1379466910        2.3332962363
 C          1.4154774069       -2.5965359125        1.8107712961
 C          1.3746990646       -2.0005899877        0.5578807347
 C          0.1910732951       -1.9698223969       -0.1626026486
 H          0.1666149530       -1.4834384533       -1.1260171650
 N          2.5456538068       -1.4010656296        0.0260964566
 S          2.9789326311        0.0219855746        0.8380143739
 O          3.3313338593       -0.3215341786        2.1924720602
 O          1.9476764756        1.0257928601        0.6841075169
 C          4.4381096995        0.4937615209       -0.0696891236
 C          4.3250716987        1.4024395842       -1.1040305229
 C          5.4582861673        1.7377028369       -1.8283929974
 C          6.6769967957        1.1580265886       -1.5097698810
 C          6.7740647305        0.2467382101       -0.4686609512
 C          5.6451087549       -0.0918701228        0.2599357270
 H          5.6729145396       -0.7880867213        1.0814888438
 H          7.7240507738       -0.1998440770       -0.2232969876
 H          7.5567772219        1.4201964293       -2.0758994318
 H          5.3851591338        2.4473913489       -2.6367708096
 H          3.3584710270        1.8339064606       -1.3119144885
 H          2.3942668640       -1.1507616710       -0.9446447726
 H          2.3379556443       -2.6019751238        2.3676114911
 H          0.2729833543       -3.5989936361        3.3094316735
 H         -1.8441844031       -3.4727295942        2.0558263263
 H         -3.0565965081       -2.8988248738        0.1840743688
 C         -2.2334646928       -2.8664325127       -1.7852162798
 C         -2.2494362505       -4.3485174566       -2.0038339233
 C         -3.4459681899       -3.5237419149       -2.3694957622
 H         -3.6647884272       -3.3631984281       -3.4144601412
 H         -4.3254054048       -3.5943240991       -1.7458113932
 H         -1.6449010871       -4.7581896316       -2.7982926404
 H         -2.3176960273       -4.9807091152       -1.1313989066
 H         -1.6305969556       -2.2635151970       -2.4506121891
