  62
        -98.93873609
 C          2.6747149610        0.3907813651       -0.3742298653
 C          2.9289904157       -0.5350081815        0.6708452742
 C          2.7599650584       -1.9561505482        0.3517606299
 C          2.3820347764       -2.3047438001       -0.8909839644
 C          2.1262369038       -3.7115795209       -1.3479139447
 C          0.6515073113       -4.0990880213       -1.1769246183
 C          0.0818627717       -3.7938008307        0.2086032589
 H          0.0205484563       -2.7097332717        0.3334073261
 H         -0.9443835879       -4.1683959238        0.2202605091
 C          0.8643926741       -4.4133402867        1.3748350271
 H          0.1510983216       -4.8401145676        2.0830953367
 H          1.4870150293       -5.2309131060        1.0090719033
 C          1.7320091380       -3.4271650648        2.1592861649
 H          1.1381143678       -2.5478781944        2.4226277040
 H          2.0381672641       -3.9098265447        3.0914616323
 C          3.0060548958       -2.9498066522        1.4514294060
 H          3.5653876359       -3.8097223016        1.0769957477
 H          3.6239072884       -2.4304226715        2.1898527053
 H          0.0602143356       -3.5443328283       -1.9096247408
 H          0.5502061546       -5.1654543092       -1.3900967876
 H          2.3894882581       -3.7811760681       -2.4050767272
 H          2.7595779482       -4.3908345451       -0.7799217267
 O          2.1669042007       -1.3973138864       -1.8744713669
 C          2.2667445724       -0.0278011020       -1.6413465725
 O          1.9965154251        0.6603251060       -2.6432964308
 O          3.2910917538       -0.1771424768        1.8251099613
 C          2.7615900552        1.8552457930        0.0222688645
 C          1.5404495942        2.2227361458        0.8307471112
 C          1.6268871211        3.0509450779        1.9426470160
 C          0.4912259349        3.3711031080        2.6667294512
 C         -0.7412963306        2.8555402811        2.3116350018
 C         -0.8346284579        2.0060513332        1.2124467066
 C          0.2991786639        1.7183035869        0.4697366640
 H          0.2164200885        1.0801498468       -0.3973887713
 N         -2.0604411876        1.4048595032        0.8874545483
 S         -2.2592458916        0.4810281032       -0.5013691606
 O         -1.3997420418       -0.6711005221       -0.4164379052
 O         -2.1436079462        1.3069806868       -1.6840754630
 C         -3.9566686436       -0.0141645008       -0.2764975258
 C         -4.2262522243       -1.1029922910        0.5305424461
 C         -5.5451196180       -1.4757847198        0.7353414412
 C         -6.5673399053       -0.7566251331        0.1338184650
 C         -6.2817648666        0.3321886372       -0.6760735627
 C         -4.9644870786        0.7099821513       -0.8845513003
 H         -4.6937876078        1.5417308767       -1.5149732211
 H         -7.0781317347        0.8866797840       -1.1456764319
 H         -7.5929720379       -1.0488784954        0.2945007472
 H         -5.7703017622       -2.3242361793        1.3610911627
 H         -3.3974767693       -1.6347711070        0.9686518161
 H         -2.8736365987        1.9550992872        1.1213501036
 H         -1.6237281811        3.0912352306        2.8856555763
 H          0.5684892357        4.0212997617        3.5248368870
 H          2.5911981849        3.4298041964        2.2476447128
 H          3.6301700675        1.9276813065        0.6983231787
 C          3.0031334323        2.8120209868       -1.1333332009
 C          1.9063443342        3.6015443208       -1.7756508916
 C          2.9261172515        4.2961206204       -0.9268462236
 H          3.6611143860        4.9193343396       -1.4129907095
 H          2.6081040221        4.6540824676        0.0401794796
 H          1.9394457356        3.7223642480       -2.8474933944
 H          0.9045480906        3.4818107331       -1.3907897013
 H          3.7824304113        2.4522572493       -1.7967995003
