  62
        -98.94074233
 C         -0.7596874222       -1.2735056989        0.7530282205
 C         -1.4967822220       -1.1830138879       -0.4513686996
 C         -2.3841450803       -0.0168296666       -0.5794961097
 C         -2.4028012990        0.9043939235        0.3999884302
 C         -3.2882179873        2.1180436548        0.4398629601
 C         -4.7239053179        1.7144881869        0.8322846201
 C         -5.7641487975        1.9374987683       -0.2652827700
 H         -6.6789031682        1.4262019397        0.0417613700
 H         -5.9882807059        3.0041871286       -0.3315207300
 C         -5.3691539981        1.4545266576       -1.6640382999
 H         -6.2813236881        1.4356739989       -2.2643115399
 H         -4.7043005371        2.1828158066       -2.1313798799
 C         -4.7052057701        0.0732624967       -1.7330865398
 H         -5.0820294209       -0.4403853529       -2.6198951298
 H         -4.9857265611       -0.5325431429       -0.8712445097
 C         -3.1700406601        0.1041741144       -1.8550918297
 H         -2.8485834613       -0.7493407761       -2.4600762296
 H         -2.8575106888        1.0093008739       -2.3849148798
 H         -4.7156477294        0.6608368469        1.1184080802
 H         -5.0316598671        2.2782571574        1.7141206100
 H         -2.8710147363        2.8023943142        1.1792475901
 H         -3.2763629765        2.6085404147       -0.5314432299
 O         -1.6525887692        0.8006129925        1.5280901903
 C         -0.8045827408       -0.2779206188        1.7265996104
 O         -0.1538576208       -0.2325627096        2.7900198204
 H          1.4994780993       -0.2263721022        0.1941605805
 C          1.8184199681       -1.0718459727       -0.3977905994
 C          1.2745954163       -2.3231231419       -0.1360223494
 C          1.7065128548       -3.4051625726       -0.8904357193
 C          2.6311098651       -3.2212887840       -1.9049765193
 C          3.1287614469       -1.9645032848       -2.1964260393
 C          2.7142078985       -0.8775575041       -1.4342494694
 N          3.1994316004        0.4156237452       -1.6785780695
 S          2.2126133023        1.7391663566       -1.4058315596
 O          0.8304088019        1.4704379086       -1.7293217697
 O          2.8384979538        2.8061856057       -2.1610261397
 C          2.3954298727        2.0840622565        0.3302278403
 C          1.2879756032        2.4769200682        1.0541544703
 C          1.4318181736        2.7624599280        2.4020251803
 C          2.6783569534        2.6553329863        2.9979315003
 C          3.7836490629        2.2684879346        2.2552466904
 C          3.6456843725        1.9808929347        0.9070447004
 H          4.4799353121        1.6709947135        0.3001432505
 H          4.7506520828        2.1852081132        2.7247129004
 H          2.7851289037        2.8705729562        4.0493495703
 H          0.5684182140        3.0496002993        2.9802598902
 H          0.3318124933        2.5285402795        0.5558183602
 H          3.7581895305        0.5187556343       -2.5130142495
 H          3.8262537871       -1.8208031158       -3.0074064493
 H          2.9542482239       -4.0680733545       -2.4913979492
 H          1.3092061633       -4.3879590120       -0.6966969292
 C          0.2301735061       -2.4088396503        0.9514592606
 H          0.7223221264       -2.2186850010        1.9165987806
 C         -0.4773297358       -3.7450501693        1.0148377607
 C          0.1202445125       -4.8766767901        1.7944721608
 C         -1.0986243665       -4.1735045383        2.3091433407
 H         -2.0460235572       -4.6904296269        2.2797653507
 H         -0.9897509755       -3.5093772584        3.1543554606
 H          1.0579506328       -4.6963364614        2.2978031408
 H          0.0079882611       -5.8808713000        1.4145123108
 H         -1.0132830361       -3.9754339286        0.1015235707
 O         -1.4204325332       -2.0356291881       -1.3753028795
