  62
        -98.94088367
 C          2.7008024873        0.1862916391       -0.2203837435
 C          2.2860912559        0.9861333693        0.8737832263
 C          1.8333822778        2.3449378965        0.5323901043
 C          1.8131619609        2.7524430902       -0.7480413751
 C          1.4265736639        4.1207379382       -1.2427951636
 C         -0.0838788546        4.3285350419       -1.4128745182
 C         -0.8671423564        4.4799117053       -0.1086227831
 H         -0.3871102114        5.2304597948        0.5204978192
 H         -1.8581729349        4.8561695012       -0.3698047934
 C         -1.0306637911        3.1724184022        0.6776451756
 H         -0.8400985759        2.3194678849        0.0219432727
 H         -2.0648747336        3.0733475764        1.0182255710
 C         -0.1433880792        3.0458310255        1.9161126338
 H         -0.3042128307        2.0478526554        2.3331974772
 H         -0.4496424432        3.7810991861        2.6647932639
 C          1.3570958171        3.2215246265        1.6515451028
 H          1.5799103156        4.2669472327        1.4352231788
 H          1.8977212980        2.9259358999        2.5546260176
 H         -0.2234966928        5.2352858922       -2.0064024554
 H         -0.4893591129        3.4879258849       -1.9810600302
 H          1.8248765158        4.8779807201       -0.5662370109
 H          1.9031134015        4.2400142754       -2.2183966726
 O          2.1980903169        1.9462939528       -1.7739018616
 C          2.6161046147        0.6496338582       -1.5359745807
 O          2.9143159859        0.0127348082       -2.5683436984
 O          2.3072330357        0.6240927784        2.0780340222
 C          3.1557154791       -1.2610341247       -0.0986369442
 C          1.9996307057       -2.1698987017       -0.4352857882
 C          2.1627445944       -3.2805414531       -1.2546335364
 C          1.0767992677       -4.0687800740       -1.5929714983
 C         -0.1926865637       -3.7475038785       -1.1477576703
 C         -0.3648994601       -2.6392571071       -0.3259628473
 C          0.7321668078       -1.8781117118        0.0461184906
 H          0.5839985846       -1.0250329830        0.6913958405
 N         -1.6361251539       -2.2630229302        0.1393345026
 S         -1.9267212371       -0.5965727261        0.2486717913
 O         -1.3272509034        0.0797687158       -0.8794121543
 O         -1.5431603898       -0.1538217200        1.5636550081
 C         -3.7046567295       -0.5652662004        0.1110237383
 C         -4.2844606828       -0.3122988392       -1.1175468086
 C         -5.6666854336       -0.3229584256       -1.2219108063
 C         -6.4410650570       -0.5882738044       -0.1024828321
 C         -5.8448134476       -0.8388212626        1.1245998042
 C         -4.4635241814       -0.8278130502        1.2360767175
 H         -3.9544591616       -1.0060213950        2.1688756460
 H         -6.4499685950       -1.0411197024        1.9934312061
 H         -7.5162344709       -0.5967224682       -0.1865434647
 H         -6.1323737934       -0.1242864469       -2.1736902516
 H         -3.6410937074       -0.1032194655       -1.9573940771
 H         -2.3877378056       -2.7471982385       -0.3330295297
 H         -1.0450654950       -4.3427362286       -1.4381204055
 H          1.2158584427       -4.9278695127       -2.2315661469
 H          3.1425732765       -3.5077649804       -1.6483062342
 H          3.9169404103       -1.4009071170       -0.8847601825
 C          3.8099553806       -1.6013975802        1.2308462700
 C          3.1142975068       -2.3720282838        2.3079370203
 C          4.2195905556       -3.0139755059        1.5277200219
 H          5.1671960075       -3.1819986721        2.0164022818
 H          3.9472414242       -3.7746777727        0.8120926621
 H          3.2945803913       -2.0750159158        3.3295617817
 H          2.1006388030       -2.6946875814        2.1252870877
 H          4.4845868248       -0.8187803067        1.5606151292
