  62
        -98.93241596
 C          1.7721415217        1.2658847546        0.3946426044
 C          2.3189839648        0.4397909557       -0.6150532162
 C          3.5392901646       -0.3168054152       -0.2602234856
 C          4.0487437540       -0.2021304888        0.9783934899
 C          5.2719212863       -0.8602813802        1.5649537785
 C          6.5295073193       -0.8835079748        0.6826081046
 C          6.8838128604       -2.2790765257        0.1664642516
 H          7.9507281329       -2.3054137193       -0.0659747554
 H          6.7073574009       -3.0009659547        0.9667203004
 C          6.1277221895       -2.7188106933       -1.0861736092
 H          6.3630778986       -3.7711838466       -1.2618750362
 H          6.4959988481       -2.1561893362       -1.9468184881
 C          4.6069730479       -2.5610684366       -1.0230552769
 H          4.2321942635       -2.8543902845       -0.0429426821
 H          4.1698432076       -3.2506489641       -1.7485681414
 C          4.1189670247       -1.1473132558       -1.3726491766
 H          4.9250983483       -0.5829841395       -1.8509265664
 H          3.3160800929       -1.2107095999       -2.1141903298
 H          6.4117909512       -0.1907870351       -0.1493174653
 H          7.3657172487       -0.5253675351        1.2853083735
 H          5.4749205777       -0.3097371098        2.4865000042
 H          5.0093555816       -1.8783745807        1.8632630811
 O          3.4534909183        0.5639682942        1.9381274187
 C          2.3096775647        1.2968579928        1.6824969443
 O          1.8677143629        1.9186790866        2.6695778434
 O          1.8248432722        0.3255230671       -1.7659011549
 C          0.5227827346        2.0978998938        0.1602402231
 C         -0.5278935115        1.2656739649       -0.5336318609
 C         -1.1026405819        1.6007599487       -1.7516626998
 C         -2.0600345107        0.7803323166       -2.3236829645
 C         -2.4692365584       -0.3807285316       -1.6954528477
 C         -1.9081731371       -0.7194820861       -0.4701312086
 C         -0.9552953960        0.1066623743        0.1042829059
 H         -0.5136851386       -0.1614486381        1.0569334790
 N         -2.3261761630       -1.8915516531        0.1830607473
 S         -3.9670691660       -2.2106465606        0.2480057708
 O         -4.1508462959       -3.0054557992        1.4424525292
 O         -4.3932984484       -2.8235816765       -0.9853458644
 C         -4.7480230898       -0.6166887305        0.4305654080
 C         -4.4313814855        0.1379883514        1.5428192815
 C         -5.0007165532        1.3926035379        1.6860267279
 C         -5.8729388805        1.8689772664        0.7189500455
 C         -6.1852823369        1.0969233267       -0.3889168876
 C         -5.6170879135       -0.1581869696       -0.5381435196
 H         -5.8300499943       -0.7903268578       -1.3846828030
 H         -6.8654116820        1.4690446472       -1.1379408242
 H         -6.3116529959        2.8477014703        0.8321471584
 H         -4.7589233290        1.9938656655        2.5478433837
 H         -3.7537075394       -0.2628195842        2.2798368043
 H         -1.8841619489       -2.0463276205        1.0766994379
 H         -3.1984788363       -1.0392830080       -2.1387311852
 H         -2.4884098449        1.0457311346       -3.2780508984
 H         -0.7806400045        2.4888182150       -2.2693791501
 H          0.1483214494        2.3301221659        1.1711424916
 C          0.7820267691        3.4346087441       -0.5185940013
 C          2.0979153716        4.1355694815       -0.3636469355
 C          1.6991697322        3.5758895565       -1.6945031950
 H          1.4245666300        4.2676671159       -2.4774976160
 H          2.1947264315        2.6874162998       -2.0515571385
 H          2.0954888118        5.2071844628       -0.2316443768
 H          2.8726278129        3.6298936640        0.1947982819
 H         -0.0995380540        4.0680006255       -0.5098508699
