  62
        -98.93735249
 C         -2.2870901348       -0.6645151585        0.1521833904
 C         -3.5368688795       -1.0045142297        0.7313012042
 C         -4.7304342355       -0.5978862082       -0.0176755080
 C         -4.5923505380        0.0656712786       -1.1795652163
 C         -5.7104720233        0.5242922889       -2.0760450273
 C         -6.3294297460        1.8677456099       -1.6662685141
 C         -7.2011781348        1.8269142532       -0.4105361124
 H         -7.9427932280        1.0337232385       -0.5098449947
 H         -7.7415751335        2.7744894383       -0.3650882245
 C         -6.4187011395        1.6422199540        0.8971813793
 H         -6.7827508708        2.3522703486        1.6431749817
 H         -5.3642475433        1.8711440827        0.7257772090
 C         -6.5284389534        0.2460062607        1.5099498132
 H         -7.5618654662        0.0566876526        1.8084817937
 H         -5.9072935572        0.2157334462        2.4087942991
 C         -6.0730085707       -0.8882662577        0.5825882964
 H         -6.8119043411       -1.0534244121       -0.2012732366
 H         -5.9813477075       -1.8007815420        1.1768127134
 H         -6.9469699626        2.2089108927       -2.5003021727
 H         -5.5254900734        2.5945307531       -1.5288063991
 H         -5.2822341319        0.6331281568       -3.0747726329
 H         -6.4873188040       -0.2400454521       -2.1119540973
 O         -3.3773581390        0.3906350730       -1.6936885323
 C         -2.1965372894        0.0597998538       -1.0374205184
 O         -1.1728675163        0.4661510659       -1.6174133519
 H          1.5260023106       -0.8227230226       -0.1283010098
 C          1.1987744184        0.0406279978        0.4264943302
 C         -0.0652611869        0.0839139894        0.9904598754
 C         -0.4529152287        1.2372466232        1.6689836712
 C          0.4025951208        2.3157093930        1.7770754345
 C          1.6726040378        2.2604040735        1.2297158385
 C          2.0666588874        1.1173560301        0.5458446375
 N          3.3386611522        1.0345176761       -0.0422165293
 S          4.1271540848       -0.4570181015       -0.0271870432
 O          3.7237634118       -1.2206161133       -1.1808718623
 O          3.9460832591       -1.0977664637        1.2564748384
 C          5.8210015616        0.0692694454       -0.2185173021
 C          6.2949122561        0.3390034331       -1.4886049614
 C          7.6010421322        0.7778807915       -1.6368170837
 C          8.4067311004        0.9400083184       -0.5194237953
 C          7.9177942638        0.6638784428        0.7486077173
 C          6.6120984033        0.2256039107        0.9041371318
 H          6.1920005745       -0.0100094486        1.8687354263
 H          8.5475822789        0.7876552610        1.6148228867
 H          9.4230817601        1.2808288355       -0.6381165690
 H          7.9853754893        0.9905859583       -2.6213235879
 H          5.6346383766        0.1897996478       -2.3271492327
 H          3.9515049612        1.7909037538        0.2289279364
 H          2.3462069854        3.0991771712        1.3198934184
 H          0.0843279359        3.2041993453        2.3017499133
 H         -1.4421144276        1.2766208082        2.1056425372
 C         -1.0340786478       -1.0680146912        0.9071132409
 H         -1.3889983696       -1.2819570543        1.9301958004
 C         -0.3874448395       -2.3486154932        0.4011361793
 C         -1.2044660079       -3.4397492673       -0.2212456908
 C         -0.2424300889       -2.6538275948       -1.0582840304
 H          0.6689915092       -3.1304089959       -1.3904764828
 H         -0.6339045902       -1.9347876317       -1.7608974554
 H         -2.2611403741       -3.2585354482       -0.3545035646
 H         -0.9620239579       -4.4636551718        0.0202933181
 H          0.4306686254       -2.6664274460        1.0424217870
 O         -3.6484446358       -1.6184440155        1.8257482220
