  62
        -98.93310083
 C         -1.8217748623       -0.7237950325        0.3918733380
 C         -2.2064794940        0.5543332144       -0.0847199569
 C         -3.6056547989        0.7229223948       -0.5120445631
 C         -4.4457545746       -0.3255210182       -0.4347365371
 C         -5.9006510132       -0.4709273793       -0.8297972369
 C         -6.7562049648        0.7587365473       -1.1227437147
 C         -7.0400828154        1.6435037354        0.0906737874
 H         -7.5684470185        2.5354871639       -0.2529854209
 H         -7.7067759445        1.1020551885        0.7666633570
 C         -5.8157277172        2.0706132159        0.8963691818
 H         -5.3341316833        1.1899832744        1.3264833957
 H         -6.1631481571        2.6864912605        1.7304399720
 C         -4.7740430851        2.8784453943        0.1248136937
 H         -4.0436887144        3.2491422003        0.8489233030
 H         -5.2508943783        3.7427986578       -0.3413889662
 C         -4.0001579308        2.1024164106       -0.9550578989
 H         -4.5568208692        2.0614124328       -1.8882737307
 H         -3.0670649582        2.6378665713       -1.1525625770
 H         -7.7164218521        0.3886303876       -1.4924624460
 H         -6.3143560256        1.3421889377       -1.9250490607
 H         -6.3698167588       -1.0511173348       -0.0287557005
 H         -5.9037582811       -1.1141707424       -1.7167938214
 O         -4.0291099731       -1.5423681257        0.0187896532
 C         -2.7275119607       -1.7827383498        0.4423588508
 O         -2.5395486915       -2.9517444557        0.8229431753
 O         -1.4054588744        1.5255731952       -0.1497171313
 C         -0.3814364763       -0.8714072669        0.8437936326
 C          0.5172818337       -1.3644565253       -0.2609124075
 C          0.1511179126       -2.4157113822       -1.0945271450
 C          1.0167286304       -2.8614421218       -2.0771124246
 C          2.2678100713       -2.2897033639       -2.2292962732
 C          2.6440538223       -1.2396874294       -1.4003459741
 C          1.7584497646       -0.7717846690       -0.4399000251
 H          2.0447321720        0.0614755643        0.1823224998
 N          3.9023111388       -0.6355549179       -1.5206452286
 S          4.7282499112       -0.1634437442       -0.1405026049
 O          6.1188466896       -0.1445269457       -0.5393669980
 O          4.3968530776       -1.0043219539        0.9850446511
 C          4.1851907921        1.5066120785        0.1462907902
 C          4.3426875751        2.4261863327       -0.8716338035
 C          3.9311128035        3.7323178869       -0.6627788387
 C          3.3727065094        4.0948954073        0.5537630314
 C          3.2254268063        3.1608965885        1.5673663389
 C          3.6362646834        1.8528238727        1.3648724795
 H          3.5349138050        1.0948575289        2.1263061920
 H          2.7893513516        3.4438265357        2.5120966921
 H          3.0488698791        5.1111804528        0.7138400076
 H          4.0433207192        4.4626123868       -1.4478923645
 H          4.7836289772        2.1066633259       -1.8010816450
 H          4.5152844694       -1.0567714559       -2.2032289601
 H          2.9478435089       -2.6527373634       -2.9849308994
 H          0.7202001004       -3.6758142997       -2.7211519304
 H         -0.8107299614       -2.8865968151       -0.9576995213
 H         -0.0599067971        0.1543666671        1.0866731284
 C         -0.2281229530       -1.6991113919        2.1128263997
 C          0.3018478522       -3.0977251845        2.1308532437
 C          1.1312670584       -1.9796889157        2.6837363176
 H          1.2610080225       -1.9158367365        3.7539613998
 H          1.9997871538       -1.6732369440        2.1178883245
 H         -0.1565965554       -3.7990197529        2.8112216488
 H          0.6021844155       -3.5400506456        1.1940914538
 H         -1.0152356245       -1.4806164726        2.8283727464
