  62
        -98.94878319
 C         -1.8120576496       -1.3372745808       -0.2505486911
 C         -2.8915733899       -0.6579498913        0.3588475989
 C         -3.2682878102        0.6207679488       -0.2509603607
 C         -2.5997880801        1.0685203394       -1.3298005904
 C         -2.8522547603        2.3642652596       -2.0507557699
 C         -2.1374502608        3.5601832196       -1.4059841993
 C         -2.7632474912        4.0610938489       -0.1035598593
 H         -2.3187935116        5.0350163890        0.1113209712
 H         -3.8342323513        4.2129769986       -0.2461950695
 C         -2.5243942612        3.1388918485        1.1002964504
 H         -1.6921926310        2.4657934489        0.8763658904
 H         -2.2188765716        3.7387767883        1.9617979307
 C         -3.7445042111        2.3210060680        1.5266783198
 H         -4.5265786914        2.9940732176        1.8861732999
 H         -3.4494686111        1.6745566477        2.3577480297
 C         -4.3333299306        1.4330619182        0.4225403594
 H         -5.0407226705        0.7388681578        0.8835693189
 H         -4.8654439206        2.0433838183       -0.3065405505
 H         -1.0962313208        3.2832560798       -1.2192088292
 H         -2.1446686509        4.3789823499       -2.1294931690
 H         -2.4674191600        2.2380745601       -3.0649342599
 H         -3.9237357803        2.5595375693       -2.1044858001
 O         -1.5930962597        0.3676478200       -1.9098899704
 C         -1.1313533795       -0.8106762301       -1.3493490708
 O         -0.1390712092       -1.2991356596       -1.9239862807
 H         -0.3634288903       -0.4751803011        1.6726257195
 C          0.4460072900       -1.1503763907        1.4218125694
 C          0.1596523405       -2.3522789506        0.7848095089
 C          1.2137410608       -3.2046133001        0.4846269188
 C          2.5187755807       -2.8381642898        0.7697525693
 C          2.8016352202       -1.6063661600        1.3319354998
 C          1.7506630098       -0.7616623104        1.6614653499
 N          2.0421919693        0.5521131695        2.1385682805
 S          1.9244747793        1.6508853300        0.8549854808
 O          2.2660921688        2.9428541698        1.4132367014
 O          0.6290928194        1.5829226798        0.2134026405
 C          3.2117846297        1.0839669908       -0.2282457791
 C          4.5033333295        1.5077425711        0.0192489814
 C          5.5295772698        1.0281227717       -0.7778584886
 C          5.2470985703        0.1320707220       -1.7984618590
 C          3.9451967405       -0.2833442383       -2.0314886894
 C          2.9111856902        0.1934800211       -1.2397896395
 H          1.8892014503       -0.1189121292       -1.3968503098
 H          3.7203230309       -0.9820747081       -2.8212205198
 H          6.0458179706       -0.2458617675       -2.4170764290
 H          6.5430646897        1.3496789619       -0.5997984582
 H          4.6696475391        2.2053116208        0.8236125717
 H          1.3978173691        0.8539351690        2.8587051904
 H          3.8153616100       -1.2880112597        1.5121924901
 H          3.3271448409       -3.5081206995        0.5213718692
 H          1.0141689112       -4.1487922300        0.0046853684
 C         -1.2750964893       -2.6052529108        0.3931056885
 H         -1.8746097195       -2.7524477714        1.3037898883
 C         -1.4565689888       -3.8013206005       -0.5156920720
 C         -1.5861202885       -5.1771126508        0.0652500174
 C         -2.7807494485       -4.5020522309       -0.5364278126
 H         -3.1582396382       -4.8619339207       -1.4816344228
 H         -3.5486145388       -4.1292152614        0.1256685374
 H         -1.1456140481       -6.0056439705       -0.4682414428
 H         -1.5467024787       -5.2717494912        1.1398404774
 H         -0.9352577786       -3.6874534100       -1.4594051718
 O         -3.4996730700       -1.0928236119        1.3762798786
