  62
        -98.93053765
 C         -2.7027836068       -0.1861070694       -0.1932302161
 C         -2.1215279427       -0.9575012621        0.8413587707
 C         -1.4211358686       -2.1920747202        0.4259417390
 C         -1.4464836620       -2.5669407233       -0.8637404729
 C         -0.7787395722       -3.7403697343       -1.5372044214
 C         -0.7295818369       -5.0739967436       -0.7783444679
 C          0.6594474772       -5.4190436707       -0.2367861201
 H          0.7305988357       -6.5032578966       -0.1246261358
 H          1.4029035436       -5.1166362257       -0.9771454027
 C          1.0117133077       -4.7923911272        1.1112406342
 H          0.4337974497       -5.2795097409        1.8996431086
 H          2.0669838432       -4.9962792148        1.3066238695
 C          0.7773624005       -3.2841790117        1.2091473867
 H          1.4006947382       -2.8891564909        2.0149049497
 H          1.0971659779       -2.7763280751        0.2978045964
 C         -0.6810045792       -2.9115095542        1.5191038306
 H         -1.2436070844       -3.7995363546        1.8203158212
 H         -0.7078271731       -2.2261647659        2.3719736965
 H         -1.4639303000       -5.0721389492        0.0248489360
 H         -1.0180966086       -5.8595896857       -1.4789016744
 H         -1.3239360252       -3.8694686203       -2.4757119068
 H          0.2339396842       -3.4277977642       -1.8088944921
 O         -2.1139741356       -1.8455415092       -1.8110432181
 C         -2.6821779580       -0.6223310784       -1.5186466783
 O         -3.1629768106       -0.0308538516       -2.5083850636
 O         -2.1618344538       -0.6502339853        2.0609237880
 C         -3.2380466779        1.2249569122       -0.0027029991
 C         -2.1299637263        2.1864247114       -0.3612205420
 C         -2.3575106852        3.2949310134       -1.1674336750
 C         -1.3085802521        4.1168011294       -1.5424884302
 C         -0.0137896346        3.8332484240       -1.1476006150
 C          0.2227175676        2.7290177101       -0.3355378202
 C         -0.8363663337        1.9347365412        0.0732083629
 H         -0.6345119555        1.0862222798        0.7091726870
 N          1.5195466537        2.3947894992        0.0860338795
 S          1.8861735788        0.7483903869        0.2497687049
 O          1.3021053969       -0.0045839052       -0.8376700699
 O          1.5523936454        0.3349447834        1.5875468842
 C          3.6612094279        0.8063307175        0.0751374872
 C          4.4291364968        1.1136447341        1.1825534922
 C          5.8052399601        1.1976840357        1.0414271048
 C          6.3876654645        0.9748194521       -0.1975225394
 C          5.6047142965        0.6644927383       -1.2993391806
 C          4.2275366862        0.5807851108       -1.1651759242
 H          3.5788963257        0.3350017458       -1.9910009441
 H          6.0599610529        0.4880163336       -2.2605356802
 H          7.4587684562        1.0407308203       -0.3048281667
 H          6.4170722646        1.4357150100        1.8964335602
 H          3.9311261124        1.2687687431        2.1254131102
 H          2.2407139321        2.8943417321       -0.4164135359
 H          0.8081211718        4.4552279540       -1.4679181701
 H         -1.4978923654        4.9734563886       -2.1713515603
 H         -3.3578259319        3.4940694230       -1.5228547076
 H         -4.0357117694        1.3490634979       -0.7535549346
 C         -3.8492258020        1.4965200187        1.3616982525
 C         -3.1486964351        2.2801187298        2.4263038781
 C         -4.3190386884        2.8786338828        1.7089278906
 H         -5.2517635254        2.9865773982        2.2411697185
 H         -4.1181477771        3.6667673669        0.9992845356
 H         -3.2690632674        1.9522703798        3.4473282784
 H         -2.1621398199        2.6603347347        2.2094480619
 H         -4.4654938384        0.6708974862        1.7003017670
