  62
        -98.93464624
 C          2.1679054957        0.8579758690        0.1103691416
 C          3.0378282709        0.2656516524        1.0573654035
 C          3.8679425625       -0.8602057153        0.5929562645
 C          3.7305941022       -1.2995917940       -0.6717761452
 C          4.4009940349       -2.4368665661       -1.4142580857
 C          5.6247151064       -3.1368384728       -0.8295977022
 C          6.8883345273       -2.2777401862       -0.7816763610
 H          7.6601926228       -2.8327567300       -0.2442121848
 H          7.2409063476       -2.1236849373       -1.8046279459
 C          6.7273711129       -0.9018666521       -0.1400532859
 H          6.0162367790       -0.3086627750       -0.7187058145
 H          7.6925821088       -0.3913557926       -0.1964428450
 C          6.2924157068       -0.9099044702        1.3239505135
 H          6.3618322175        0.1164819636        1.6949345492
 H          6.9807869896       -1.5228300665        1.9091229227
 C          4.8581657594       -1.4002505242        1.5845382210
 H          4.8129845819       -2.4860826725        1.6227720944
 H          4.5455076598       -1.0253422876        2.5637651139
 H          5.3952308341       -3.5367401448        0.1537851310
 H          5.8330386664       -3.9926244007       -1.4774545874
 H          3.6174215060       -3.1852155904       -1.5765254544
 H          4.6539903442       -2.0395240126       -2.4024597833
 O          2.8285281515       -0.7400338688       -1.5294468072
 C          2.0329906970        0.3413281625       -1.1779352442
 O          1.2714503001        0.7197199704       -2.0854458378
 O          3.1115511797        0.6536693918        2.2549984073
 C          1.3148148390        2.0271956464        0.5667855363
 C         -0.1238967098        1.8114376183        0.1673747383
 C         -0.8571499755        2.7077051509       -0.5976157605
 C         -2.1765649615        2.4380561796       -0.9181374286
 C         -2.7905823982        1.2765163888       -0.4893692831
 C         -2.0683778104        0.3740440555        0.2811164050
 C         -0.7513063679        0.6526121077        0.6102548550
 H         -0.1878438036       -0.0519166853        1.2112730763
 N         -2.6751459779       -0.8209256977        0.7045782041
 S         -4.1900606168       -0.7468024103        1.4215903952
 O         -4.3894021897        0.5075955733        2.1099416608
 O         -4.2827651969       -1.9436071205        2.2294563301
 C         -5.3226617802       -0.8824760640        0.0548809724
 C         -5.1934911416       -1.9657823291       -0.7919227312
 C         -6.0732746792       -2.0924952037       -1.8549044579
 C         -7.0638113539       -1.1413086906       -2.0497935650
 C         -7.1827512638       -0.0615654907       -1.1883270821
 C         -6.3051568332        0.0716130126       -0.1234838885
 H         -6.3559070615        0.8968864090        0.5687777566
 H         -7.9536918375        0.6763924663       -1.3415042363
 H         -7.7468393400       -1.2426064146       -2.8783648669
 H         -5.9832862625       -2.9306503956       -2.5270921238
 H         -4.4122997017       -2.6836507251       -0.6045822339
 H         -2.0602022128       -1.4295589402        1.2246747974
 H         -3.8148260236        1.0606511476       -0.7456510353
 H         -2.7327199133        3.1407055159       -1.5197584479
 H         -0.3913828279        3.6083671580       -0.9616568728
 H          1.3642496739        1.9843431798        1.6685211844
 C          1.8577157598        3.3909906045        0.1667481795
 C          3.3197675396        3.5951260801       -0.0923361335
 C          2.3392849488        3.6875716779       -1.2207942938
 H          2.1309478597        4.6623089905       -1.6373016517
 H          2.3039130036        2.8870495124       -1.9426090440
 H          3.7824570131        4.5021943836        0.2667915550
 H          3.9630409426        2.7284176008       -0.0430409110
 H          1.3483549243        4.1961933003        0.6875676054
