  62
        -98.94520213
 C         -1.5154956267        1.2403894683        0.0876791693
 C         -2.8567082899        1.3508599963       -0.3622624541
 C         -3.8644637756        0.6223893015        0.4141355983
 C         -3.4880077913       -0.0877948337        1.4927125911
 C         -4.3974032111       -0.8743435763        2.3973513192
 C         -4.7138985675       -2.2864404625        1.8861729230
 C         -5.6640581705       -2.3468688133        0.6894291085
 H         -5.9695253139       -3.3889295857        0.5758939340
 H         -6.5607378631       -1.7666803649        0.9095357334
 C         -5.0491414239       -1.8666623720       -0.6327665563
 H         -3.9597770227       -1.8527200224       -0.5447851925
 H         -5.2944106464       -2.5756938052       -1.4268293902
 C         -5.5279231216       -0.4891226117       -1.0917844019
 H         -5.0006151437       -0.2347968844       -2.0147017461
 H         -6.5966313711       -0.5285327985       -1.3137533356
 C         -5.2798797720        0.6362789079       -0.0788784975
 H         -5.9748641296        0.5512674115        0.7561132418
 H         -5.4482056894        1.5922953898       -0.5805130371
 H         -3.7747462114       -2.7843638669        1.6321542721
 H         -5.1687492302       -2.8380464181        2.7123097420
 H         -5.3264734726       -0.3248562828        2.5517156687
 H         -3.8814028001       -0.9633899321        3.3557758728
 O         -2.1963136222       -0.1530809173        1.9066715136
 C         -1.1757530653        0.4797706716        1.2071116219
 O         -0.0488594183        0.3011430083        1.7050569734
 O         -3.1964888603        2.0341764412       -1.3649392045
 C         -0.4465366625        1.9365006364       -0.7412940060
 C          0.1958502631        0.9022777195       -1.6352535312
 C         -0.3988274018        0.5979912224       -2.8571063203
 C          0.1444872427       -0.3666401008       -3.6838571225
 C          1.2842347735       -1.0533081185       -3.3036058429
 C          1.8805897989       -0.7647495312       -2.0818454384
 C          1.3415396921        0.2163619989       -1.2605440979
 H          1.8047026737        0.4230941212       -0.3117087885
 N          3.0463915495       -1.4338539942       -1.6772693754
 S          3.1669458921       -2.0022003360       -0.0996385559
 O          4.1448842071       -3.0691057676       -0.1879400252
 O          1.8748328395       -2.3737341903        0.4254229906
 C          3.8946330317       -0.6497357141        0.7992018368
 C          3.1941216959       -0.0155800362        1.8051616298
 C          3.8025666364        1.0335196863        2.4786017696
 C          5.0887874766        1.4237383154        2.1402612022
 C          5.7789221559        0.7717236551        1.1289327855
 C          5.1785489094       -0.2762307169        0.4511426468
 H          5.6808352493       -0.8163187475       -0.3339122010
 H          6.7791419501        1.0779262924        0.8680418531
 H          5.5541616018        2.2413718239        2.6681015778
 H          3.2603903852        1.5409390177        3.2610178803
 H          2.1849436840       -0.3263741338        2.0289512993
 H          3.3766422753       -2.1274543280       -2.3334269719
 H          1.7079489717       -1.8114675917       -3.9450895468
 H         -0.3245625613       -0.5909798188       -4.6301380068
 H         -1.3008793806        1.1205594931       -3.1425515391
 H         -0.9981095771        2.6337339628       -1.3873165225
 C          0.5503014242        2.7243556271        0.0809799779
 C          1.4601878957        3.6896590651       -0.6165059312
 C          0.3544151447        4.1992645947        0.2568440817
 H          0.6086581781        4.6411672206        1.2084453543
 H         -0.5042378916        4.6514026554       -0.2178897202
 H          2.4772523202        3.7815323219       -0.2680478728
 H          1.3494309899        3.7929135179       -1.6854237571
 H          0.9483303652        2.1770740101        0.9251427826
