  62
        -98.94175433
 C         -2.1929381766       -1.2646901712        0.2983621899
 C         -1.8014094146       -0.3160925221       -0.6788229309
 C         -2.6158866863        0.9104028094       -0.7405679039
 C         -3.6406758272        1.0726562298        0.1149107205
 C         -4.5340135733        2.2775589743        0.1709943496
 C         -4.0010713552        3.3259787735        1.1569620751
 C         -2.5213724187        3.6568499964        0.9627192240
 H         -1.9241472699        2.7754657224        1.2093769504
 H         -2.2617717668        4.4312142163        1.6880349308
 C         -2.1593102939        4.1357904151       -0.4501000789
 H         -1.5019866533        5.0038810636       -0.3665059311
 H         -3.0596774348        4.4605389791       -0.9726851507
 C         -1.4216939220        3.0999621835       -1.3005412550
 H         -0.5731709788        2.7082263692       -0.7343390897
 H         -1.0210846498        3.6108604588       -2.1801594026
 C         -2.2632668984        1.9180443996       -1.7991565557
 H         -1.6711989115        1.3742361020       -2.5412396323
 H         -3.1650113277        2.2917712098       -2.2885876197
 H         -4.1381250369        2.9486054988        2.1731280651
 H         -4.5958824150        4.2348988098        1.0501595043
 H         -4.6156924462        2.7089117575       -0.8248532161
 H         -5.5236371191        1.9546165886        0.4989847964
 O         -3.9556953465        0.1610703494        1.0707481089
 C         -3.2362128196       -1.0171818174        1.1940832974
 O         -3.6113982687       -1.7488675056        2.1321518715
 H         -0.0453633042       -0.8389767802        1.8509230831
 C          0.5975445634       -1.4338023351        1.2125033642
 C          0.0270481324       -2.3984698550        0.3904498945
 C          0.8637616812       -3.1433830054       -0.4302037391
 C          2.2324354353       -2.9354708672       -0.4126987744
 C          2.7956382042       -1.9763565210        0.4074725796
 C          1.9647512585       -1.2076393690        1.2136146294
 N          2.5200188362       -0.2023832419        2.0211870807
 S          3.7689918657        0.7229192595        1.4028804486
 O          5.0228489317        0.0457152834        1.6283808712
 O          3.6325241901        2.0112965497        2.0479594066
 C          3.4825883700        0.8710670514       -0.3524536827
 C          2.2338153631        1.2566216952       -0.7952931485
 C          2.0080219382        1.3655281189       -2.1569301591
 C          3.0341958139        1.0974037417       -3.0493044826
 C          4.2868922356        0.7216754246       -2.5899098741
 C          4.5150879013        0.6030380638       -1.2286254727
 H          5.4688120420        0.3006478408       -0.8271787889
 H          5.0830025528        0.5143043477       -3.2867073990
 H          2.8523281053        1.1792669329       -4.1091993753
 H          1.0269814500        1.6375898663       -2.5098537012
 H          1.4478708147        1.4519640532       -0.0827819238
 H          1.8404433369        0.3687791165        2.5005996874
 H          3.8603250144       -1.8096612876        0.4381493128
 H          2.8701418253       -3.5266302026       -1.0518080392
 H          0.4462046063       -3.8790145914       -1.0969250161
 C         -1.4691603954       -2.5902679581        0.4596869459
 H         -1.7100094008       -2.9207704147        1.4844199115
 C         -1.9768306359       -3.6808574870       -0.4740580777
 C         -3.3545044205       -3.6255371685       -1.0621175954
 C         -2.1565332125       -3.4469801329       -1.9429948864
 H         -1.9009383019       -4.2442258361       -2.6254373393
 H         -1.9356371355       -2.4607379885       -2.3186962324
 H         -3.9641561684       -2.7615426139       -0.8399516607
 H         -3.9158124873       -4.5453509435       -1.1320937949
 H         -1.6293086173       -4.6645935194       -0.1741923069
 O         -0.8333558893       -0.4707001683       -1.4644938363
