  62
        -98.93784869
 C         -2.5864981106       -1.1331455575        0.5040602675
 C         -3.4404851486       -0.8464791878       -0.5900723154
 C         -4.6085071401       -0.0024756587       -0.2844124244
 C         -4.8003045473        0.4426478353        0.9695952048
 C         -5.9123179685        1.3545028810        1.3986269991
 C         -5.4933894115        2.8279099181        1.2982138346
 C         -4.8575943364        3.1991378410       -0.0415045736
 H         -4.6315568541        4.2671324268       -0.0090055432
 H         -3.9056978225        2.6725493079       -0.1423542378
 C         -5.7347405992        2.8990768689       -1.2650401160
 H         -6.7723474646        2.7705357075       -0.9547006227
 H         -5.7021318118        3.7582602034       -1.9383396472
 C         -5.2942313792        1.6799261272       -2.0773304173
 H         -5.8394748775        1.6878788617       -3.0249023052
 H         -4.2299498719        1.7613319499       -2.3117195719
 C         -5.5400047684        0.3157592537       -1.4204459465
 H         -5.3621457840       -0.4534154850       -2.1777726234
 H         -6.5803528343        0.2450735516       -1.0966472936
 H         -6.3741871494        3.4492946428        1.4701436147
 H         -4.7700356086        3.0367413531        2.0898260171
 H         -6.7860516018        1.1710683831        0.7762896962
 H         -6.1623520882        1.1267393924        2.4362371710
 O         -3.9605535683        0.1449013547        1.9944438852
 C         -2.8394611161       -0.6377673314        1.7862550717
 O         -2.1539529616       -0.8314060284        2.8114307606
 O         -3.2582653004       -1.2607938374       -1.7625759414
 C         -1.3389664518       -1.9931799558        0.3814006926
 C         -0.1504700643       -1.1579164724       -0.0198560256
 C         -0.1819232202       -0.3495031472       -1.1520664779
 C          0.9232209002        0.4029721733       -1.5054511696
 C          2.0757596417        0.3710447875       -0.7394662842
 C          2.1170135012       -0.4291085105        0.3938969825
 C          1.0070350764       -1.1879221064        0.7437207477
 H          1.0393075160       -1.8020199998        1.6341583152
 N          3.2793872419       -0.4530208894        1.1826821196
 S          4.7496404644       -0.7482369845        0.4257295668
 O          4.5727971795       -1.5393727136       -0.7695785710
 O          5.5957932642       -1.3131453856        1.4536902494
 C          5.3516526022        0.8731875247        0.0048430910
 C          5.6441847710        1.1794312622       -1.3096914097
 C          6.1204441579        2.4456416816       -1.6125581278
 C          6.2958542767        3.3771882310       -0.6007823428
 C          6.0003348162        3.0525853351        0.7150210844
 C          5.5246313414        1.7885092077        1.0245290194
 H          5.2882047251        1.4952829592        2.0338322422
 H          6.1389452563        3.7794763124        1.4991131171
 H          6.6658498026        4.3619798279       -0.8388001875
 H          6.3518049614        2.6996396004       -2.6345592129
 H          5.4891161002        0.4242105610       -2.0638314098
 H          3.1909149918       -1.0050975076        2.0235529259
 H          2.9377698723        0.9581826726       -1.0109445098
 H          0.8868393131        1.0241329705       -2.3876388379
 H         -1.0787603155       -0.3254938278       -1.7523418759
 H         -1.1500418753       -2.3648892678        1.4012578109
 C         -1.5398527431       -3.2142206368       -0.5067090485
 C         -0.8715425712       -3.4075664801       -1.8310977492
 C         -0.4352095615       -4.2195722604       -0.6512596934
 H         -0.6809547539       -5.2702545641       -0.6197729638
 H          0.5195963540       -3.9765198817       -0.2076900020
 H         -1.4429123733       -3.8862402926       -2.6115542971
 H         -0.2066255836       -2.6381594253       -2.1900688296
 H         -2.5454909367       -3.6126327443       -0.4183135482
