  62
        -98.94614103
 C         -1.9126198108       -1.2831475648        0.3021458305
 C         -1.6951910841        0.0863597322        0.0214200475
 C         -2.8294491756        0.9788414908        0.2904440907
 C         -3.9703505470        0.4770580341        0.7973543972
 C         -5.2045116514        1.2632305533        1.1476835407
 C         -6.1379588178        1.5231162076       -0.0426353866
 C         -5.6320322305        2.5535914651       -1.0529254516
 H         -6.4701707715        2.7970871509       -1.7088926947
 H         -5.3529777687        3.4681680282       -0.5288136082
 C         -4.4560324959        2.0717924799       -1.9141025194
 H         -4.3865183075        0.9827998527       -1.8599174504
 H         -4.6414418232        2.3275153459       -2.9598698883
 C         -3.1030541227        2.6734490004       -1.5340742450
 H         -3.1183985205        3.7509094819       -1.7127444507
 H         -2.3396205605        2.2358930601       -2.1827421376
 C         -2.6874070092        2.4246888011       -0.0782234356
 H         -1.6326488335        2.6905086189        0.0249041901
 H         -3.2752838615        3.0499110228        0.5933387163
 H         -6.3268085554        0.5754096079       -0.5522482835
 H         -7.0890349010        1.8782635026        0.3607795200
 H         -5.7484132160        0.6736104713        1.8887806504
 H         -4.9182961929        2.2127315056        1.6007412400
 O         -4.1288542496       -0.8440295969        1.0786913917
 C         -3.1171535971       -1.7555676514        0.8231898223
 O         -3.4026190536       -2.9359900709        1.1093808391
 H          1.7808716250       -1.8853082132       -0.8803911579
 C          1.6669145418       -1.7528563573        0.1819358563
 C          0.4332959590       -1.9123544442        0.7920336801
 C          0.3411623041       -1.7250337844        2.1697783646
 C          1.4516911378       -1.3768815378        2.9129356953
 C          2.6783255010       -1.1971731753        2.2962330241
 C          2.7822360255       -1.3852266600        0.9243430924
 N          4.0183648436       -1.2297492109        0.2670683201
 S          4.1505341444       -0.1137219369       -0.9761332770
 O          3.2459820312       -0.4546801197       -2.0419034880
 O          5.5583957184       -0.1063634388       -1.3114017352
 C          3.7151730518        1.4455729788       -0.2259906698
 C          4.7376970732        2.2762760565        0.1921625691
 C          4.4224328071        3.4609448356        0.8364713705
 C          3.0937745644        3.7887380930        1.0617516239
 C          2.0816424394        2.9412669455        0.6400154126
 C          2.3871942539        1.7554440181       -0.0112064676
 H          1.6063811736        1.0904922981       -0.3456154552
 H          1.0457385597        3.1867355595        0.8133022179
 H          2.8448765472        4.7086902628        1.5671685044
 H          5.2097284185        4.1214018072        1.1626417081
 H          5.7553680822        1.9810024603       -0.0068446590
 H          4.7986567551       -1.1095269066        0.8983610569
 H          3.5471740601       -0.9179156997        2.8729791011
 H          1.3623247063       -1.2365698614        3.9795632268
 H         -0.6202428312       -1.8566780104        2.6483359356
 C         -0.8122149015       -2.2929821603        0.0296819812
 H         -1.1747395749       -3.2532698294        0.4248881699
 C         -0.5917090571       -2.4346663251       -1.4618116683
 C         -0.0548088888       -3.7154983765       -2.0234791574
 C         -1.4889257181       -3.3418029195       -2.2463324442
 H         -1.7959366181       -3.0355351179       -3.2352560900
 H         -2.2499536259       -3.8799739444       -1.6995812435
 H          0.6269671011       -3.6637488984       -2.8592215244
 H          0.1586752019       -4.5148052252       -1.3298376538
 H         -0.2860938682       -1.5071262612       -1.9335686342
 O         -0.6120430581        0.5443788124       -0.4251812987
