  62
        -98.93366427
 C         -2.4438439873       -0.8809831951       -0.0555010228
 C         -3.6351900805       -0.9897998468        0.6951814045
 C         -4.8628585061       -0.4449628722        0.0833803033
 C         -4.7808346789        0.1189640989       -1.1363977148
 C         -5.8770749531        0.7739485971       -1.9340856274
 C         -6.2331160210        2.1754407637       -1.4122901052
 C         -6.3520811555        2.2856360345        0.1055273954
 H         -5.4106082214        1.9745882286        0.5621772762
 H         -6.4969246471        3.3410489492        0.3513166283
 C         -7.5034875865        1.4990902794        0.7275854427
 H         -7.5212199065        1.7395241206        1.7937578172
 H         -8.4460222324        1.8417936277        0.2948330958
 C         -7.4284412094       -0.0225950135        0.5857766164
 H         -7.7211898882       -0.3386761597       -0.4117993049
 H         -8.1632499629       -0.4497792855        1.2745156168
 C         -6.0801219999       -0.6318894547        0.9570614305
 H         -6.2046674470       -1.7169146053        1.0583427597
 H         -5.7914403146       -0.2825408441        1.9550911424
 H         -7.1694329374        2.4890588415       -1.8769135384
 H         -5.4485735449        2.8645442217       -1.7345646883
 H         -5.5059101129        0.8686169901       -2.9568973535
 H         -6.7545996760        0.1347586474       -1.9580589756
 O         -3.6052929369        0.2039795166       -1.8234308948
 C         -2.4164737731       -0.2851267809       -1.3154462715
 O         -1.4328039457       -0.1373919741       -2.0652218328
 O         -3.6783644374       -1.5155668301        1.8412908931
 C         -1.1517450612       -1.4215196723        0.5280222332
 C         -0.1341619896       -0.3132392613        0.6432719327
 C         -0.4994094548        0.8652506328        1.2895043623
 C          0.3963234939        1.9083513677        1.4192375364
 C          1.6785510926        1.8017791871        0.9090649790
 C          2.0582870444        0.6277728340        0.2749055709
 C          1.1568731964       -0.4244290202        0.1537941056
 H          1.4676490481       -1.3299922241       -0.3433733674
 N          3.3534216188        0.5121766023       -0.2589444841
 S          4.6382785642        1.1253168968        0.6482758774
 O          4.5178113869        0.7056574061        2.0268222786
 O          4.7182657931        2.5480047561        0.4296966085
 C          6.0194949655        0.3152816592       -0.1334437908
 C          6.5106402622        0.8360871723       -1.3157181795
 C          7.5676266119        0.1945244702       -1.9413509705
 C          8.1119543249       -0.9504581895       -1.3784206330
 C          7.6089244104       -1.4604016470       -0.1909968017
 C          6.5510820250       -0.8243856727        0.4396451782
 H          6.1336420210       -1.1801984919        1.3679408514
 H          8.0361032768       -2.3490258478        0.2451275625
 H          8.9352899283       -1.4471406625       -1.8670250724
 H          7.9632741327        0.5887915386       -2.8634365607
 H          6.0616535746        1.7321452718       -1.7113463407
 H          3.5485103623       -0.4214906150       -0.5934463289
 H          2.3876096267        2.6086902760        1.0012101943
 H          0.0957199267        2.8165987416        1.9204785164
 H         -1.5014501976        0.9528451078        1.6877339681
 H         -1.4078385536       -1.7549357162        1.5448642515
 C         -0.6739503292       -2.6162807943       -0.2698752500
 C          0.1683140856       -3.6713895250        0.3815933604
 C         -1.2579078141       -3.9636935071        0.0270114794
 H         -1.4597552103       -4.6310228997       -0.7973403544
 H         -1.9837127246       -4.0236369855        0.8247342148
 H          0.9453377757       -4.1444049296       -0.1999781550
 H          0.4146318241       -3.5398491827        1.4244684085
 H         -0.4822082016       -2.3723566657       -1.3089964905
