  62
        -98.93565690
 C         -1.4965158712       -1.3565342840        0.2793048917
 C         -2.2002113824       -0.8208191323       -0.8251761283
 C         -3.2206243564        0.1947506669       -0.5105506162
 C         -3.4398982817        0.5412394168        0.7693669754
 C         -4.4463181301        1.5277422642        1.3054642491
 C         -4.5496461901        2.8833311981        0.5888816050
 C         -3.2517434522        3.3778098886       -0.0671491626
 H         -3.0701359787        4.4093104561        0.2410104671
 H         -2.4047511500        2.7822671762        0.2786161325
 C         -3.3073893982        3.3512060838       -1.5971406419
 H         -2.5487892101        4.0340903896       -1.9881506892
 H         -4.2808878532        3.7301705520       -1.9158845844
 C         -3.0664332348        1.9883862077       -2.2471553318
 H         -3.2716422509        2.0859563970       -3.3159574591
 H         -2.0128735027        1.7097883847       -2.1517117048
 C         -3.9046130680        0.8273771889       -1.6876805709
 H         -4.9134238309        1.1513982356       -1.4433698498
 H         -3.9613150059        0.0543487636       -2.4588039316
 H         -4.8793291048        3.6107762845        1.3323566495
 H         -5.3299909603        2.8353188797       -0.1695185752
 H         -5.4289495349        1.0479413014        1.3063358922
 H         -4.1628807266        1.6850140932        2.3486434071
 O         -2.7484323952       -0.0139050770        1.8039941721
 C         -1.7561731247       -0.9572695106        1.5891876059
 O         -1.1864503940       -1.3518660252        2.6249547549
 H          0.3574362588        0.1949915701       -0.2135177875
 C          0.9786979395       -0.4685370474       -0.8035032976
 C          0.7094464379       -1.8302260434       -0.8042789987
 C          1.5308063872       -2.6588509791       -1.5610785359
 C          2.5849670945       -2.1371872335       -2.2909032308
 C          2.8456986957       -0.7783011583       -2.2870733045
 C          2.0260616736        0.0576084979       -1.5441442743
 N          2.3134820359        1.4472502960       -1.5034734766
 S          3.5420115580        1.8186160616       -0.4210189978
 O          3.5552604785        3.2588917408       -0.3060242553
 O          4.7563709307        1.1979544995       -0.8818763976
 C          3.0019066658        1.0740213667        1.1062870718
 C          3.2993167267       -0.2525861879        1.3457373887
 C          2.7572771816       -0.8677409077        2.4627707458
 C          1.9272018763       -0.1536762004        3.3127299169
 C          1.6435721299        1.1798657432        3.0611203109
 C          2.1776944056        1.7997566514        1.9432058679
 H          1.9752136099        2.8331493988        1.7080782727
 H          0.9944788936        1.7293750345        3.7242391164
 H          1.4845577853       -0.6413439307        4.1664699464
 H          2.9715689188       -1.9057362180        2.6602155508
 H          3.9438035687       -0.7762386188        0.6582837287
 H          1.5052263778        2.0054254144       -1.2640652046
 H          3.6724872726       -0.3543765900       -2.8328449737
 H          3.2130427275       -2.7974220339       -2.8691100761
 H          1.3451995224       -3.7206219633       -1.5743594210
 C         -0.4003139943       -2.3786935382        0.0615242968
 H          0.0258238971       -2.5795150812        1.0564298607
 C         -0.9845057531       -3.6673239250       -0.4861686943
 C         -0.4386744321       -4.9963795146       -0.0604499102
 C         -1.7794242037       -4.5447159354        0.4323732850
 H         -2.6648929803       -5.0278368083        0.0474767282
 H         -1.8672504757       -4.2296476580        1.4622654899
 H         -0.4047028511       -5.7955876205       -0.7856660019
 H          0.3789866726       -5.0023218934        0.6444983282
 H         -1.3382810376       -3.5606716568       -1.5050829628
 O         -1.9884182685       -1.1654696054       -2.0166351290
