  62
        -98.94760029
 C         -0.7661957146       -1.2627292852        0.0597803612
 C         -1.4810661983       -0.5923101040        1.0797628608
 C         -2.4068051681        0.4556635171        0.6303648673
 C         -2.4726001284        0.7568138350       -0.6794617265
 C         -3.4429546804        1.7259842089       -1.2884136776
 C         -4.7391036830        1.0157068633       -1.7072495028
 C         -5.3367776545        0.1183395407       -0.6234055966
 H         -6.2597262439       -0.3053809380       -1.0253805331
 H         -4.6569664967       -0.7157484594       -0.4346090226
 C         -5.6385887294        0.8341340019        0.7005905060
 H         -5.6711398908        1.9123141970        0.5402495347
 H         -6.6279827535        0.5280339692        1.0469648214
 C         -4.6550345265        0.5196807352        1.8293631898
 H         -5.0755993361        0.9002569443        2.7641203346
 H         -4.5515404550       -0.5632603560        1.9352771643
 C         -3.2542978551        1.1259474904        1.6747686948
 H         -3.3429813059        2.1957004199        1.4769754216
 H         -2.7258775657        0.9912853405        2.6232629876
 H         -5.4696733081        1.7732552085       -1.9965797370
 H         -4.5266716127        0.3967039248       -2.5818785399
 H         -3.6648326293        2.5143802004       -0.5724784337
 H         -2.9821600183        2.1625480622       -2.1751211749
 O         -1.6971244135        0.1568470972       -1.6174335187
 C         -0.8502673629       -0.8881504924       -1.2812702325
 O         -0.2392110229       -1.3858108662       -2.2452012285
 O         -1.3640369589       -0.8687935013        2.3052345485
 C          0.1206485657       -2.4363735010        0.4291148122
 C          1.5261865778       -2.2460775555       -0.0828278315
 C          2.2723557744       -3.2721229946       -0.6486280221
 C          3.5634131866       -3.0375733701       -1.0884062090
 C          4.1374434137       -1.7862737971       -0.9678143408
 C          3.4008712890       -0.7531558048       -0.3974526621
 C          2.1095993329       -0.9918265711        0.0427906908
 H          1.5425585699       -0.1904275997        0.4939082947
 N          3.9409884561        0.5333661046       -0.2971822012
 S          3.3911655707        1.6519253416        0.8027512887
 O          4.3950946268        2.6951853017        0.7742046156
 O          3.1398953530        1.0626584702        2.0976067948
 C          1.8873937259        2.2931035856        0.1003274381
 C          1.8467199520        2.5650149030       -1.2523882559
 C          0.7032674126        3.1370407331       -1.7855948277
 C         -0.3690443098        3.4368821005       -0.9602196470
 C         -0.3157480029        3.1503134568        0.3944494994
 C          0.8216658230        2.5708773978        0.9322653829
 H          0.8976519405        2.3209954915        1.9792106107
 H         -1.1513227685        3.3756257546        1.0368987083
 H         -1.2518338941        3.8976419809       -1.3736492682
 H          0.6529650487        3.3495129963       -2.8414306699
 H          2.7006069337        2.3254459886       -1.8640530849
 H          4.9173629257        0.6315789541       -0.5283721587
 H          5.1426962451       -1.6032744049       -1.3149866395
 H          4.1312054320       -3.8419437504       -1.5309029232
 H          1.8427851300       -4.2551136754       -0.7502675711
 H          0.1583756426       -2.4432729948        1.5295695120
 C         -0.5205553876       -3.7265432727       -0.0434970140
 C         -0.3330026349       -4.9986727176        0.7264057196
 C         -1.6579150389       -4.2993049351        0.7460996624
 H         -2.4858798341       -4.7425517008        0.2132786499
 H         -1.9476754848       -3.7752714774        1.6453924140
 H         -0.2537108013       -5.9262744700        0.1796848396
 H          0.2729218957       -4.9582548755        1.6190314669
 H         -0.5831884759       -3.7846737224       -1.1248112870
