  62
        -98.94878498
 C          1.8104547073        1.3377936877       -0.2477751924
 C          2.8864995344        0.6567021323        0.3657548520
 C          3.2654709694       -0.6211552898       -0.2444341538
 C          2.6022383096       -1.0663572911       -1.3275634939
 C          2.8596584561       -2.3594830003       -2.0514738773
 C          2.1420209332       -3.5581933820       -1.4152280923
 C          2.7604453432       -4.0630592037       -0.1108600383
 H          2.3145710596       -5.0375140829        0.0986224854
 H          3.8321548936       -4.2147748855       -0.2480927112
 C          2.5152101592       -3.1444033737        1.0944287079
 H          1.6839695985       -2.4708593297        0.8683837525
 H          2.2053843445       -3.7469480821        1.9525339337
 C          3.7329171601       -2.3276796356        1.5298246833
 H          3.4335163201       -1.6847210711        2.3620511117
 H          4.5134343640       -3.0019088343        1.8905579816
 C          4.3271649020       -1.4352091665        0.4322062771
 H          4.8638418015       -2.0425918369       -0.2960050885
 H          5.0314793161       -0.7422258967        0.8997128060
 H          1.0995346993       -3.2826372892       -1.2336686599
 H          2.1542223958       -4.3744986561       -2.1414994304
 H          3.9315689301       -2.5538172129       -2.0995364066
 H          2.4808217244       -2.2299458372       -3.0674912912
 O          1.5973893497       -0.3648770432       -1.9100731289
 C          1.1332307917        0.8123064325       -1.3492223893
 O          0.1424270655        1.3010748233       -1.9261726545
 O          3.4903190028        1.0898041580        1.3865124258
 C          1.2731672185        2.6068586569        0.3935407073
 C         -0.1618865761        2.3548319616        0.7845964787
 C         -1.2159407598        3.2062251679        0.4816009284
 C         -2.5211997105        2.8399114802        0.7660764442
 C         -2.8042798608        1.6089950779        1.3301180064
 C         -1.7533339763        0.7652537413        1.6621283638
 C         -0.4485267461        1.1541301185        1.4236692661
 H          0.3608374038        0.4797733570        1.6768389338
 N         -2.0448137296       -0.5484942850        2.1393540338
 S         -1.9206117448       -1.6478553043        0.8569040671
 O         -2.2588546665       -2.9404919004        1.4156362240
 O         -0.6247728483       -1.5762372384        0.2166854163
 C         -3.2081180468       -1.0854348503       -0.2283930592
 C         -4.4982567001       -1.5151273860        0.0161514137
 C         -5.5250440494       -1.0391757007       -0.7824059029
 C         -5.2445043884       -0.1407247651       -1.8014269426
 C         -3.9440150363        0.2807721460       -2.0313927595
 C         -2.9093716964       -0.1926508212       -1.2384577231
 H         -1.8883718319        0.1239623135       -1.3935376101
 H         -3.7207821217        0.9815775083       -2.8197626073
 H         -6.0437128023        0.2344566274       -2.4210930226
 H         -6.5374124921       -1.3655389732       -0.6067730544
 H         -4.6629313640       -2.2143779056        0.8193654145
 H         -1.4042040734       -0.8484432622        2.8635388339
 H         -3.8180148662        1.2903261466        1.5099215325
 H         -3.3294733032        3.5091608281        0.5155030948
 H         -1.0161909173        4.1495182800       -0.0000200982
 H          1.8720175231        2.7554546784        1.3044191316
 C          1.4556329386        3.8009423725       -0.5176329221
 C          1.5892081615        5.1776025373        0.0602431602
 C          2.7814171781        4.4985280502       -0.5417579837
 H          3.1582683710        4.8554615017       -1.4883304809
 H          3.5494442742        4.1252393815        0.1199221558
 H          1.1499146071        6.0060302317       -0.4743918942
 H          1.5516039469        5.2745856605        1.1346844669
 H          0.9328642046        3.6862410386       -1.4604401157
