  62
        -98.94173268
 C          2.2586373452        0.7421457422        0.0680082670
 C          3.4359017479        1.0636563392        0.7946932024
 C          4.3818390317       -0.0344722684        1.0286407654
 C          4.0660250270       -1.2717117567        0.6063019308
 C          4.9545276476       -2.4744576889        0.7324324061
 C          5.8460814601       -2.6380083863       -0.5066647538
 C          6.5736118339       -1.3579181559       -0.9182000525
 H          7.1937139493       -1.6008282514       -1.7837985370
 H          5.8380440441       -0.6204692948       -1.2478490288
 C          7.4495169535       -0.7432457347        0.1825312504
 H          7.6500279903       -1.4871095637        0.9544000061
 H          8.4103158318       -0.4600106704       -0.2523216700
 C          6.8657927973        0.5139339289        0.8300094797
 H          6.5787901282        1.2266871912        0.0526218349
 H          7.6504593838        0.9830220748        1.4293822496
 C          5.6591365233        0.2911712623        1.7504551643
 H          5.8941491963       -0.4820925500        2.4846133270
 H          5.4706881195        1.2269648802        2.2846844941
 H          6.5754303567       -3.4247369287       -0.3054306268
 H          5.2206359930       -2.9605439534       -1.3424942524
 H          5.5692727793       -2.3733315604        1.6248080199
 H          4.3231635134       -3.3587552585        0.8349975178
 O          2.9046349483       -1.5568499888       -0.0326669553
 C          1.9758047156       -0.5654100013       -0.3322775788
 O          0.9779840448       -0.9922973579       -0.9432326735
 H         -0.8028914105        0.9368375959       -1.6932138025
 C         -1.0497082965        1.0086753596       -0.6454533665
 C         -0.1024745176        1.4766188679        0.2504510047
 C         -0.4286246117        1.5254670933        1.6024610139
 C         -1.6751899780        1.1214239725        2.0416093031
 C         -2.6176525910        0.6497701994        1.1442820137
 C         -2.2932964478        0.5762110901       -0.2032447052
 N         -3.2355080922        0.0901394116       -1.1238157364
 S         -4.1617015564       -1.2489979376       -0.7228978791
 O         -3.4839042214       -2.1342368726        0.1951741019
 O         -4.5625463703       -1.8192836797       -1.9911212761
 C         -5.5955774086       -0.5377735754        0.0621386205
 C         -6.2710464250        0.4684501681       -0.6005476155
 C         -7.3940176134        1.0238212125       -0.0085941597
 C         -7.8232607092        0.5644135834        1.2276654707
 C         -7.1372078341       -0.4492128649        1.8785680233
 C         -6.0123281310       -1.0082096792        1.2919004443
 H         -5.4446066742       -1.7948213995        1.7634950087
 H         -7.4722137591       -0.8063212279        2.8391855403
 H         -8.6975895818        0.9984815399        1.6864198571
 H         -7.9300025854        1.8122369540       -0.5119795724
 H         -5.9069594519        0.7952497372       -1.5600859466
 H         -2.8716031147        0.0043796200       -2.0619629028
 H         -3.5856829860        0.3176607139        1.4818411662
 H         -1.9164963772        1.1689411691        3.0926972798
 H          0.3131124813        1.8755795651        2.3071344454
 C          1.2808406552        1.8760623671       -0.1922330145
 H          1.6285834886        2.6866552244        0.4683433721
 C          1.3128015667        2.4317359808       -1.6084760996
 C          2.6156159240        2.5858802095       -2.3331720164
 C          1.6015791097        1.5953727418       -2.8173819013
 H          1.0654788628        1.8175156687       -3.7290113029
 H          1.7952917434        0.5438470960       -2.6742804008
 H          2.7833915780        3.4803866798       -2.9136248123
 H          3.5016354675        2.2089702487       -1.8431411555
 H          0.5908287918        3.2325183425       -1.7379845005
 O          3.6835844758        2.2200676482        1.2282247519
