  62
        -98.94354447
 C         -1.2274859457       -0.8886527809       -0.6935182582
 C         -2.3271010707       -1.3042722095        0.0990696706
 C         -3.2076510504       -0.2466089632        0.6089255906
 C         -2.9068274284        1.0375779225        0.3450045810
 C         -3.7331364863        2.2165887483        0.7698010478
 C         -4.7669648343        2.5890540917       -0.3021724363
 C         -5.5829388567        1.4007650583       -0.8111674647
 H         -4.9188739425        0.7147008186       -1.3416831805
 H         -6.2983456184        1.7861718125       -1.5407611645
 C         -6.3340019654        0.6308968550        0.2839892808
 H         -7.3509480185        0.4331448123       -0.0613011765
 H         -6.4103284769        1.2444891446        1.1823678895
 C         -5.7160009661       -0.7209279996        0.6460644877
 H         -5.5507749467       -1.3038005440       -0.2634812973
 H         -6.4346802043       -1.2696660656        1.2605386150
 C         -4.3968526595       -0.6650530161        1.4272267462
 H         -4.1751240238       -1.6768759324        1.7795321626
 H         -4.5112850252       -0.0172321769        2.2992518346
 H         -4.2408122147        3.0321539564       -1.1507493663
 H         -5.4380951572        3.3430117280        0.1132802162
 H         -4.2335371391        1.9815842161        1.7074546829
 H         -3.0638026852        3.0635691578        0.9315448239
 O         -1.8299706712        1.4046435846       -0.3902482417
 C         -0.9591295720        0.4610308103       -0.9290445527
 O         -0.0300164878        0.9634955770       -1.5844713665
 H          1.2775911807       -0.2443013892        0.0808911112
 C          1.4677120460       -1.2569544953        0.3966178758
 C          0.7381856299       -2.2940847345       -0.1673680303
 C          0.9821684023       -3.5936967002        0.2590228509
 C          1.9270427882       -3.8423323148        1.2395539323
 C          2.6404667912       -2.8047181272        1.8116388646
 C          2.4071216887       -1.5005529420        1.3864148588
 N          3.1369274466       -0.4312877311        1.9150717991
 S          2.6039829074        1.1465637067        1.8084384430
 O          3.4817888502        1.8674278948        2.7094057037
 O          1.1921780994        1.2646194316        2.0974730372
 C          2.9713251624        1.6329803349        0.1370266486
 C          2.1959287759        2.6074646062       -0.4559219344
 C          2.5013500841        3.0152195368       -1.7442185692
 C          3.5700553515        2.4424786745       -2.4136746645
 C          4.3425717974        1.4669631849       -1.8024370849
 C          4.0459613859        1.0586645060       -0.5127433374
 H          4.6231436533        0.2993095041       -0.0114640999
 H          5.1709698744        1.0198396414       -2.3282614275
 H          3.7993209078        2.7560316717       -3.4200780943
 H          1.8937949620        3.7670522117       -2.2212907309
 H          1.3576926510        3.0125702263        0.0887232448
 H          3.6932830278       -0.6212987987        2.7340426959
 H          3.3683153250       -2.9972224014        2.5846316392
 H          2.1037301498       -4.8546423770        1.5697795263
 H          0.4111233843       -4.4063094652       -0.1651259881
 C         -0.3119498138       -1.9884135010       -1.2046661137
 H         -0.9561408334       -2.8783094196       -1.2919760772
 C          0.2733399833       -1.7134703534       -2.5815212717
 C          1.6955875836       -1.3104338682       -2.8138901300
 C          1.2389460153       -2.6850901786       -3.1940221116
 H          1.1344270619       -2.9277204712       -4.2405467006
 H          1.5705300851       -3.5077602569       -2.5785696103
 H          2.3429002762       -1.2010187321       -1.9582146055
 H          1.8851972336       -0.5857960142       -3.5904102964
 H         -0.4616278402       -1.2718338056       -3.2468508295
 O         -2.5649991223       -2.5154407944        0.3607209677
