  62
        -98.93952024
 C         -1.1708478962       -1.4955333231        0.6517493456
 C         -2.2008001077       -1.3187833519       -0.3034035674
 C         -3.1964961196       -0.2717939191       -0.0055717447
 C         -3.0778206725        0.4584667561        1.1152511040
 C         -3.9892268310        1.5419225631        1.6366909180
 C         -4.5499968041        2.5502732587        0.6246513297
 C         -3.6091154210        2.8925356568       -0.5396465986
 H         -3.5240952176        3.9778956084       -0.6171924330
 H         -2.6130394449        2.4939265439       -0.3442940543
 C         -4.1042925342        2.3613182089       -1.8865390030
 H         -3.6267100703        2.9309407758       -2.6870367136
 H         -5.1803947682        2.5328882562       -1.9602489302
 C         -3.8132207741        0.8841092382       -2.1462707203
 H         -2.7397095374        0.7371426698       -2.2929624146
 H         -4.3057815105        0.6020825366       -3.0798522575
 C         -4.2691420282       -0.0807878947       -1.0394730949
 H         -5.2045376551        0.2460924091       -0.5918922571
 H         -4.4260851676       -1.0626817370       -1.4939720864
 H         -5.4918576473        2.1781914243        0.2241445143
 H         -4.7849888300        3.4579126014        1.1833462600
 H         -4.8211077176        1.0602987662        2.1592547139
 H         -3.4029403776        2.0691535108        2.3935844375
 O         -2.0570134556        0.2665414134        2.0001912397
 C         -1.0926342408       -0.7034110120        1.7979103370
 O         -0.2311171710       -0.7609024414        2.6998959281
 H          2.1326152872       -1.0731032231        0.8385194708
 C          1.9736383872       -1.2906790223       -0.2071394768
 C          0.8845034132       -2.0633768183       -0.5910826602
 C          0.7044714443       -2.3431202531       -1.9408609804
 C          1.5971078571       -1.8556168026       -2.8785572393
 C          2.6780377107       -1.0829713991       -2.4941377968
 C          2.8685313244       -0.7987180172       -1.1461165444
 N          3.9749479733       -0.0430756917       -0.7317181180
 S          3.8850917167        1.0186525532        0.5526451015
 O          5.0591136491        1.8508003780        0.3967566532
 O          3.7848299841        0.2955428544        1.7938818670
 C          2.4268988807        2.0016614238        0.2599323667
 C          2.4790070667        2.9293017897       -0.7633907814
 C          1.3635771495        3.7066811724       -1.0244788544
 C          0.2179025021        3.5463850103       -0.2593378298
 C          0.1830724169        2.6134258760        0.7644778318
 C          1.2950885096        1.8282608656        1.0284238738
 H          1.2874297549        1.0921957495        1.8177715786
 H         -0.7028266808        2.4832506608        1.3665885484
 H         -0.6508792446        4.1541695980       -0.4576743940
 H          1.3886193482        4.4355269789       -1.8183805359
 H          3.3951814123        3.0398482364       -1.3204072887
 H          4.5400357509        0.3269408904       -1.4816452522
 H          3.3748737715       -0.7068232314       -3.2274500550
 H          1.4468495814       -2.0778278092       -3.9241078390
 H         -0.1487130494       -2.9215685742       -2.2538896331
 C         -0.0757178585       -2.5364639383        0.4742477240
 H          0.4715099400       -2.5565865736        1.4268824711
 C         -0.6282602849       -3.9219153286        0.2083961236
 C          0.2747737946       -5.1061918293        0.3697235787
 C         -0.8259884935       -4.8623903898        1.3570456215
 H         -1.6848903597       -5.5166524941        1.3454654352
 H         -0.5589610216       -4.5116883599        2.3437994119
 H          1.2899316315       -4.9186768023        0.6868585470
 H          0.1742215156       -5.9303225674       -0.3196118491
 H         -1.3648377687       -3.9509351585       -0.5834592469
 O         -2.3144638803       -2.0039446238       -1.3514251145
