  62
        -98.93819004
 C          1.6802056752        1.1219791661       -0.6678733692
 C          1.6814443811       -0.0664651486        0.1008278729
 C          2.9635636733       -0.4330902697        0.7305187382
 C          4.0359050972        0.3590036230        0.5646016434
 C          5.4218581774        0.1962341908        1.1369273298
 C          6.0343608590       -1.2114257629        1.1199980524
 C          5.6143868722       -2.0902085006       -0.0673608480
 H          5.1023071657       -1.4857640978       -0.8178007788
 H          6.5095271317       -2.5029249800       -0.5362706082
 C          4.7181638311       -3.2612082383        0.3435020372
 H          4.7628753830       -4.0272880480       -0.4343043100
 H          5.1171174587       -3.7025612611        1.2594504533
 C          3.2441452391       -2.9173111895        0.5556752657
 H          2.7734796203       -2.6955544870       -0.4057094524
 H          2.7462285774       -3.8018198415        0.9604731767
 C          2.9712268265       -1.7280272161        1.4910102625
 H          3.6781861584       -1.7054811968        2.3170277894
 H          1.9635677874       -1.8435277135        1.9011877160
 H          7.1180742009       -1.0829498132        1.1122260080
 H          5.7872290761       -1.7269307876        2.0471083375
 H          6.0497730862        0.8756268142        0.5555147766
 H          5.4110731339        0.5692665654        2.1652849888
 O          3.9840789715        1.5060000845       -0.1706250676
 C          2.8192803988        1.9175432402       -0.7928409687
 O          2.9248444853        2.9907899784       -1.4206914081
 O          0.6709369931       -0.7981370871        0.2594513129
 C          0.4131257726        1.6129046667       -1.3505722017
 C         -0.5553637278        2.0660923801       -0.2843424640
 C         -0.2566740662        3.2117142804        0.4499884582
 C         -1.1049721340        3.6488525468        1.4483584169
 C         -2.2581329143        2.9425643998        1.7483121086
 C         -2.5606469507        1.7945663108        1.0285497535
 C         -1.7181887624        1.3733980226        0.0079179063
 H         -1.9725414259        0.4903326063       -0.5494866803
 N         -3.7283262110        1.0548503816        1.2904278071
 S         -3.5645017349       -0.5924568652        1.6021256033
 O         -4.8105268446       -0.9515084326        2.2496925890
 O         -2.3645901649       -0.8666809501        2.3568740170
 C         -3.5177014378       -1.3570826432       -0.0034024961
 C         -2.3801433757       -2.0157477260       -0.4265249247
 C         -2.3808305769       -2.5997155698       -1.6843405176
 C         -3.5071194084       -2.5151741804       -2.4885034498
 C         -4.6414400009       -1.8513995253       -2.0449286189
 C         -4.6504816246       -1.2673138858       -0.7887835405
 H         -5.5110500693       -0.7481166488       -0.4011307437
 H         -5.5144010109       -1.7865819035       -2.6742641054
 H         -3.4982510637       -2.9681076842       -3.4676624942
 H         -1.4959648429       -3.1105532615       -2.0303633624
 H         -1.5095505483       -2.0290433732        0.2110888634
 H         -4.3291718786        1.4738214449        1.9870671051
 H         -2.9166512930        3.2771508363        2.5361315309
 H         -0.8648076099        4.5422019647        2.0054230599
 H          0.6530075724        3.7520333222        0.2247798284
 H          0.7098004639        2.4971820552       -1.9318372491
 C         -0.1552040181        0.5719762303       -2.2914003681
 C         -1.1757662024        0.9735938159       -3.3123077644
 C          0.2127126045        0.6092709324       -3.7426293547
 H          0.3651444500       -0.3264935217       -4.2588690326
 H          0.8710142118        1.4004157093       -4.0715159535
 H         -1.9801090029        0.2876523839       -3.5309961481
 H         -1.4603421974        2.0141846704       -3.3489099708
 H         -0.2583665882       -0.4028362023       -1.8318260317
