  62
        -98.94074298
 C         -1.1471768794       -0.9902102560        0.4201951060
 C         -2.0235581430       -0.7862661506       -0.6714615165
 C         -3.0522636748        0.2497378035       -0.4869998444
 C         -3.0662852410        0.9677280003        0.6506673697
 C         -4.0911330461        2.0044342911        1.0144041887
 C         -5.3948507229        1.3197907453        1.4727598453
 C         -6.5918615331        1.5617708470        0.5530331936
 H         -7.3791166985        0.8663815217        0.8517118638
 H         -6.9663312143        2.5743420322        0.7172657413
 C         -6.3252604290        1.3989407586       -0.9464828317
 H         -7.2988374318        1.3387618646       -1.4375742227
 H         -5.8374336378        2.2955321124       -1.3320616431
 C         -5.4929007327        0.1755819235       -1.3515728118
 H         -5.9113299423       -0.2284373404       -2.2755976597
 H         -5.5695711249       -0.6084393122       -0.5980427028
 C         -4.0069944820        0.4735032862       -1.6270638214
 H         -3.6560124340       -0.1962812460       -2.4180333203
 H         -3.9005487656        1.4978615735       -1.9958459072
 H         -5.2068974790        0.2471159616        1.5529784540
 H         -5.6561563108        1.6688551732        2.4728835789
 H         -3.6712318148        2.6062995038        1.8209312420
 H         -4.2761053394        2.6520724146        0.1600902836
 O         -2.1732617963        0.7771372951        1.6564642171
 C         -1.1879659373       -0.1912341874        1.5617642015
 O         -0.4188335874       -0.2427255606        2.5440973223
 H          0.8283480729        0.3977061091       -0.2778892616
 C          1.2867072644       -0.3484607821       -0.9083704189
 C          0.9215772400       -1.6801148863       -0.7694828706
 C          1.5015251687       -2.6164729960       -1.6161157770
 C          2.4117022343       -2.2166482891       -2.5796949833
 C          2.7846131651       -0.8902457390       -2.7025351606
 C          2.2142493629        0.0527976299       -1.8553111023
 N          2.5638591167        1.4100640738       -1.9277166280
 S          2.6716924397        2.2950507465       -0.5116431110
 O          1.3570373618        2.6309265206       -0.0240009325
 O          3.5172781749        3.4177702060       -0.8601484777
 C          3.5353036583        1.2240625779        0.6248656508
 C          4.8694884659        0.9769535339        0.3602421603
 C          5.5712194866        0.1124078243        1.1829187309
 C          4.9282343106       -0.4944777368        2.2516065672
 C          3.5920061529       -0.2320915619        2.5072070188
 C          2.8838946371        0.6351833455        1.6887592770
 H          1.8410850557        0.8447888690        1.8717261778
 H          3.0825273943       -0.6983740548        3.3356552744
 H          5.4705436733       -1.1731166295        2.8908761835
 H          6.6123329064       -0.0882760089        0.9883586495
 H          5.3358250295        1.4775377714       -0.4727069750
 H          3.3145506932        1.6254122698       -2.5671352999
 H          3.5003560025       -0.5836053530       -3.4495103137
 H          2.8460679899       -2.9519754207       -3.2396230073
 H          1.2353153935       -3.6568402572       -1.5271456821
 C         -0.0515465360       -2.0359810193        0.3295777783
 H          0.4963669493       -1.9811596613        1.2827525789
 C         -0.6443390394       -3.4224204209        0.1876850070
 C          0.0661323820       -4.6101986612        0.7618986230
 C         -1.1869844151       -4.1026109487        1.4075710328
 H         -2.0914021963       -4.6848333839        1.3144613474
 H         -1.1034484486       -3.5750901653        2.3470137500
 H          1.0020537858       -4.4359892770        1.2707633723
 H          0.0200827624       -5.5466677491        0.2267809099
 H         -1.1906657531       -3.5475101396       -0.7397086410
 O         -1.9524665115       -1.4350163304       -1.7483591933
