  62
        -98.93621685
 C         -2.8509138585       -0.1399147651        0.3942186069
 C         -2.8492877765       -0.9416121411       -0.7780975342
 C         -2.3409868640       -2.3090607013       -0.6327525293
 C         -1.9690687868       -2.7532897031        0.5809706400
 C         -1.4010362582       -4.1103125976        0.8956428395
 C          0.1179983368       -4.1952592298        0.6890910043
 C          0.5733414932       -4.2027273900       -0.7711442275
 H          1.6301942073       -4.4766726373       -0.7798037076
 H          0.0321997586       -4.9781739157       -1.3141625002
 C          0.4064649546       -2.8596899913       -1.4969370927
 H          0.2713658073       -2.0545094243       -0.7694221104
 H          1.3149430930       -2.6189852401       -2.0549204225
 C         -0.7539035816       -2.8138954565       -2.4915938258
 H         -0.5693931914       -3.5210592958       -3.3035246947
 H         -0.7852868773       -1.8084329002       -2.9207507731
 C         -2.1284064251       -3.1158637072       -1.8771199190
 H         -2.2219086749       -4.1808367484       -1.6659553080
 H         -2.8974873069       -2.8305211208       -2.5987769211
 H          0.4615073709       -5.1192903354        1.1593889489
 H          0.5867778508       -3.3588736061        1.2132268364
 H         -1.6178132695       -4.3047115355        1.9481322670
 H         -1.8973594550       -4.8686597346        0.2905606011
 O         -2.0682175227       -1.9852871387        1.6960145706
 C         -2.4382918733       -0.6434100473        1.6278302462
 O         -2.3535376387       -0.0555297935        2.7216426450
 O         -3.2424984546       -0.5209843968       -1.8986585112
 C         -3.1840174077        1.3280181355        0.1895484566
 C         -1.9481679640        2.0224793900       -0.3321006699
 C         -1.9980174352        2.8832088155       -1.4207049351
 C         -0.8380911088        3.4461753722       -1.9269407649
 C          0.3918113815        3.1554058165       -1.3655013128
 C          0.4510645516        2.2980106584       -0.2742189537
 C         -0.7130581897        1.7496470972        0.2399700267
 H         -0.6603630798        1.0818742190        1.0898686719
 N          1.7050093760        1.9701441101        0.2859793974
 S          2.7803417549        1.2833448386       -0.8336975565
 O          3.4877508927        2.3585295379       -1.4836753226
 O          2.0704835706        0.3768674411       -1.7062057678
 C          3.8834051645        0.3829548191        0.2365405154
 C          3.6128674080       -0.9459502673        0.5030751013
 C          4.4504769822       -1.6405892791        1.3613342397
 C          5.5353253990       -0.9963218202        1.9373731120
 C          5.7931453560        0.3379653598        1.6599938676
 C          4.9601489702        1.0385553217        0.8020902887
 H          5.1240280229        2.0732408108        0.5504476533
 H          6.6390489777        0.8333249672        2.1084470628
 H          6.1851068232       -1.5399363632        2.6048229714
 H          4.2532888607       -2.6784239086        1.5768431287
 H          2.7629950840       -1.4091119441        0.0260432422
 H          1.5966832484        1.3489473389        1.0778855057
 H          1.3080817663        3.5560992734       -1.7689695938
 H         -0.8906767265        4.1061170264       -2.7797046945
 H         -2.9485888403        3.0873136470       -1.8913302423
 H         -3.9343739251        1.3481627145       -0.6168326939
 C         -3.7912317401        2.0170264908        1.3999819118
 C         -3.0382486262        2.9960691219        2.2448439841
 C         -4.1287200361        3.4773529226        1.3383652577
 H         -5.0573467157        3.8110594139        1.7754731772
 H         -3.8353786056        4.0193570592        0.4520362538
 H         -3.2122462529        2.9743126473        3.3094805809
 H         -2.0172093933        3.2200229916        1.9770057429
 H         -4.4936371224        1.3755174464        1.9208818629
