  62
        -98.94269140
 C         -1.6192414026       -1.4675366800        0.2389517845
 C         -1.3220160392       -0.3686198764       -0.5991588837
 C         -1.9863559097        0.8995463300       -0.2693284383
 C         -2.7907786447        0.9544348703        0.8074781240
 C         -3.5773984845        2.1556388854        1.2498572287
 C         -4.8156376905        2.3449115577        0.3504794860
 C         -4.7946875992        3.6226974745       -0.4884393074
 H         -5.5946589597        3.5425870314       -1.2274436982
 H         -5.0241860530        4.4738945910        0.1559076164
 C         -3.4770595460        3.9217148399       -1.2092371282
 H         -3.6882272730        4.6947684425       -1.9511553131
 H         -2.7624733372        4.3515984716       -0.5055665102
 C         -2.8150189237        2.7298668533       -1.9120558269
 H         -2.4011326788        3.0820933352       -2.8589267755
 H         -3.5548934741        1.9659656236       -2.1515750458
 C         -1.6541249289        2.0861278532       -1.1313248084
 H         -0.9190522524        1.7105093856       -1.8495142512
 H         -1.1516169161        2.8419529874       -0.5198211635
 H         -5.7146972199        2.3555760075        0.9684736957
 H         -4.8957453823        1.4766214785       -0.3066690823
 H         -2.9394991447        3.0366795819        1.2215733484
 H         -3.8792417095        1.9810298387        2.2830744105
 O         -3.0446235629       -0.1217381357        1.5976946562
 C         -2.4549602493       -1.3494816547        1.3466131727
 O         -2.7498939918       -2.2433894047        2.1677886907
 O         -0.5296514977       -0.4442613926       -1.5760783788
 C         -0.9400684229       -2.8023359091       -0.0077096522
 C          0.5579771449       -2.6131114812       -0.0356982661
 C          1.3937835473       -3.2681803770       -0.9318173789
 C          2.7581147676       -3.0336382911       -0.9199714025
 C          3.3138241868       -2.1277455679       -0.0350445699
 C          2.4869603409       -1.4761973437        0.8724515469
 C          1.1287127039       -1.7450912854        0.8865298481
 H          0.5020933370       -1.2312486365        1.6014098571
 N          2.9938584268       -0.5249748057        1.7838797666
 S          2.4569511871        1.0540756076        1.6034132712
 O          3.1801506275        1.8103657433        2.6042358086
 O          1.0199688424        1.1030182451        1.6823166776
 C          3.0325772280        1.5269424104       -0.0180455743
 C          2.3387181413        1.1070574782       -1.1350183383
 C          2.8456172224        1.4195342812       -2.3877249160
 C          4.0264433012        2.1361586452       -2.5025907735
 C          4.7113122823        2.5488232292       -1.3692607712
 C          4.2142671561        2.2375331586       -0.1144537601
 H          4.7094032275        2.5380917442        0.7949380310
 H          5.6290352542        3.1074190225       -1.4592873202
 H          4.4139930984        2.3738897308       -3.4807219979
 H          2.3075628806        1.0932899798       -3.2633641597
 H          1.4191615191        0.5526377264       -1.0261541664
 H          4.0035644323       -0.5195924227        1.8424293550
 H          4.3738950460       -1.9232650914       -0.0442371098
 H          3.3942642961       -3.5489738537       -1.6231453445
 H          0.9747504918       -3.9585428950       -1.6455577663
 H         -1.1932070652       -3.4384774910        0.8535600183
 C         -1.4856832536       -3.4435815659       -1.2678152013
 C         -1.5725646262       -4.9350093541       -1.3852150338
 C         -2.8197070329       -4.1230866613       -1.2108054503
 H         -3.4903306882       -4.0158741621       -2.0501007038
 H         -3.3199802848       -4.1473407280       -0.2532562699
 H         -1.3906452421       -5.3883547603       -2.3479837015
 H         -1.2331181537       -5.5241311298       -0.5466793425
 H         -1.2538442952       -2.8699759310       -2.1578983610
