  62
        -98.94396308
 C         -2.1150758435       -0.8418023365       -0.0071057302
 C         -2.5439549236        0.5033112331       -0.1101880632
 C         -3.8637923292        0.7941841703        0.4650132796
 C         -4.5619059695       -0.1832349007        1.0711145078
 C         -5.9068319314       -0.0348233194        1.7293978280
 C         -7.0918913261       -0.1310338659        0.7588810960
 C         -7.2820671416        1.0787369221       -0.1568491884
 H         -7.3027415383        1.9883354177        0.4442740056
 H         -8.2631819546        0.9752972976       -0.6246600501
 C         -6.2216163886        1.2114540723       -1.2587872579
 H         -6.7112940222        1.4279155057       -2.2109615255
 H         -5.6982729181        0.2598957839       -1.3772461731
 C         -5.1916544385        2.3153761899       -1.0183308869
 H         -5.6878927451        3.2884172961       -1.0288280297
 H         -4.4709233473        2.2967114051       -1.8398376502
 C         -4.4135118479        2.1784835585        0.2970753565
 H         -5.0518551124        2.4408310590        1.1405948951
 H         -3.5674954124        2.8698677443        0.2697687650
 H         -7.9962110751       -0.2501402734        1.3600840041
 H         -6.9749399823       -1.0322889867        0.1526929865
 H         -5.9890284699       -0.8477197900        2.4541548923
 H         -5.9498566844        0.9137825899        2.2653413770
 O         -4.0982578084       -1.4570824301        1.1768856360
 C         -2.8785291205       -1.8204088638        0.6299969822
 O         -2.5845465884       -3.0234719261        0.7817183696
 H          1.1656256386        0.3948669571       -1.6576366856
 C          1.2362579577        0.2965196160       -0.5860469396
 C          0.3307480697       -0.4965825735        0.0993513482
 C          0.4526348923       -0.6018994928        1.4828410405
 C          1.4407973437        0.0846122830        2.1611559736
 C          2.3324473376        0.8912701345        1.4751931843
 C          2.2252485728        0.9962570124        0.0955850838
 N          3.1323314781        1.8043465388       -0.6079203637
 S          4.7538336427        1.7125723968       -0.2130626849
 O          5.0156316545        2.4915422018        0.9713749125
 O          5.4567008647        2.1241371720       -1.4077798500
 C          5.0494442830       -0.0152975678        0.1217660930
 C          4.8444647681       -0.9200733090       -0.9013057881
 C          5.0360244976       -2.2689548209       -0.6516748121
 C          5.4250313893       -2.6888364675        0.6113750885
 C          5.6307688358       -1.7680446251        1.6265918394
 C          5.4399384095       -0.4172508666        1.3825334152
 H          5.5883284188        0.3313161758        2.1436808657
 H          5.9350328129       -2.0973849017        2.6070549536
 H          5.5695905794       -3.7402132169        0.8040096493
 H          4.8787624591       -2.9874711029       -1.4400809764
 H          4.5491556923       -0.5608266093       -1.8738945806
 H          2.9887266012        1.8186213375       -1.6064808071
 H          3.0978551725        1.4493266629        1.9894153763
 H          1.5172207297       -0.0036869759        3.2342885892
 H         -0.2476665524       -1.2280892212        2.0191310699
 C         -0.7749837405       -1.2621747536       -0.5856568732
 H         -0.6572774788       -2.3251403614       -0.3314846745
 C         -0.7824645580       -1.1194898904       -2.0929046822
 C          0.1544610462       -1.9392579471       -2.9271894511
 C         -1.3123614676       -2.2466227455       -2.9249787021
 H         -1.8920690443       -2.0096633153       -3.8046161282
 H         -1.6515032432       -3.1308760767       -2.4051303072
 H          0.8137270459       -2.6207234026       -2.4115306246
 H          0.5813639639       -1.4953353471       -3.8140409787
 H         -1.0121253064       -0.1111360828       -2.4177555221
 O         -1.8663354318        1.4148358259       -0.6523275473
