  62
        -98.94358843
 C         -1.5433434900       -1.4289579096        0.5129279718
 C         -1.6262924300       -0.1156657893        1.0486931611
 C         -2.9002143801        0.5894535805        0.8610810609
 C         -3.9130218602       -0.0440656900        0.2429539914
 C         -5.2564822303        0.5593201897       -0.0462183888
 C         -5.2840659205        1.2131701590       -1.4346378991
 C         -4.1016138107        2.1450832290       -1.6993964098
 H         -3.1830047706        1.5544875791       -1.7313924396
 H         -4.2426029409        2.5741633684       -2.6938123400
 C         -3.9427170606        3.2743732495       -0.6719790504
 H         -3.7461053608        4.2064477693       -1.2058835709
 H         -4.8748117606        3.4078468897       -0.1216869304
 C         -2.7917711505        3.0764269402        0.3165610195
 H         -2.6332392905        4.0224188105        0.8408798590
 H         -1.8758785505        2.8408597900       -0.2308389705
 C         -3.0011139502        1.9946018708        1.3835564101
 H         -2.2007977801        2.0956570612        2.1221295200
 H         -3.9570963802        2.1516100709        1.8873669502
 H         -6.2185383606        1.7681272988       -1.5366790693
 H         -5.2739660806        0.4233910386       -2.1894011187
 H         -5.4901522802        1.2962732901        0.7196703009
 H         -6.0043774502       -0.2348240703       -0.0132176782
 O         -3.8064967101       -1.3070678802       -0.2370112980
 C         -2.6164430500       -2.0189592300       -0.1547371077
 O         -2.6730925900       -3.1355394803       -0.7067094271
 O         -0.6753121400        0.4367641112        1.6619447306
 C         -0.2060487099       -2.1302355993        0.6770742820
 C          0.6702810099       -1.8702679499       -0.5247729083
 C          0.2858198198       -2.2685375206       -1.8009697280
 C          1.0975783596       -2.0011787211       -2.8877616183
 C          2.2978497596       -1.3310583909       -2.7261881888
 C          2.6934290297       -0.9347193402       -1.4534577791
 C          1.8786381999       -1.2093035097       -0.3631539288
 H          2.1958454700       -0.9036851391        0.6217567410
 N          3.9118863596       -0.2780490399       -1.2633444896
 S          4.2529310697        0.6444766008        0.0783426498
 O          5.4230342496        1.4018845708       -0.3129439007
 O          4.4143229400       -0.2014902685        1.2351748303
 C          2.8817667597        1.7600317008        0.3130438594
 C          2.4231038794        2.4879520702       -0.7667373809
 C          1.3952823994        3.3954958602       -0.5718607212
 C          0.8520357295        3.5646000908        0.6924628887
 C          1.3211910197        2.8244680814        1.7647754691
 C          2.3459398998        1.9125943014        1.5746725094
 H          2.7329122400        1.3118821919        2.3823705297
 H          0.8886741499        2.9448972319        2.7444275691
 H          0.0550677595        4.2754365308        0.8430598385
 H          1.0203631892        3.9688676397       -1.4049123015
 H          2.8705807593        2.3436252597       -1.7367683709
 H          4.3963504095        0.0209151797       -2.0950197199
 H          2.9278926694       -1.1209095013       -3.5767345890
 H          0.7903422595       -2.3134905317       -3.8745020481
 H         -0.6557033902       -2.7804793908       -1.9302838476
 H          0.2712219602       -1.6450920088        1.5399925116
 C         -0.3005047897       -3.6154661392        0.9612107228
 C          0.8769729305       -4.3028906487        1.5827005330
 C         -0.3735776994       -4.0880928284        2.3805405830
 H         -0.9957997093       -4.9407783384        2.6071271036
 H         -0.3583563194       -3.3398571980        3.1597863926
 H          1.1164076306       -5.3050209489        1.2617088335
 H          1.7415765205       -3.7000709885        1.8193063025
 H         -0.8735482397       -4.1634519596        0.2253364032
