  62
        -98.93813568
 C          2.0505097035        1.6497524401       -0.2489257305
 C          2.4542583942        0.6777492797       -1.1982873824
 C          3.6641367036       -0.0899670895       -0.8458559930
 C          4.3267344007        0.1847604159        0.2904545180
 C          5.5254782074       -0.5655969536        0.7928010492
 C          5.1077932367       -1.7202306828        1.7142397547
 C          4.0022601254       -2.6046030347        1.1364608162
 H          3.8120136070       -3.4016804062        1.8586386231
 H          3.0812126462       -2.0219238245        1.0549476486
 C          4.3318693499       -3.2223618402       -0.2296849473
 H          5.4081391604       -3.1860016324       -0.4027999637
 H          4.0397651109       -4.2746172020       -0.2174763829
 C          3.6081171128       -2.5750260048       -1.4122285971
 H          2.5346495205       -2.5282243141       -1.2064160180
 H          3.7417223576       -3.2188993517       -2.2860004147
 C          4.0880292967       -1.1705168921       -1.8004358907
 H          5.1726868220       -1.1736108364       -1.9257602757
 H          3.6299322966       -0.9183813470       -2.7615430532
 H          5.9883980133       -2.3293140540        1.9261443999
 H          4.7497862895       -1.2989938001        2.6564549458
 H          6.0904999685       -0.9484115348       -0.0547006802
 H          6.1539732772        0.1270209125        1.3550208090
 O          3.9408287700        1.1635950538        1.1486292751
 C          2.7859179310        1.8892715048        0.9161820588
 O          2.5232157936        2.7274009575        1.8021708433
 H          0.0301914418       -0.1426785538       -0.1821786173
 C         -0.5316203994        0.4919625500        0.4873273813
 C         -0.2875776243        1.8583903361        0.5235485825
 C         -1.0241617596        2.6451696553        1.4022978859
 C         -1.9770914176        2.0799249865        2.2304317253
 C         -2.2255214805        0.7202468700        2.1824832813
 C         -1.4982307103       -0.0752308688        1.3049096819
 N         -1.7374701556       -1.4655821537        1.2147944383
 S         -2.5032260097       -1.9727470590       -0.1885055402
 O         -2.7410614952       -3.3876492230       -0.0106655206
 O         -1.7249049567       -1.5795589071       -1.3319372801
 C         -4.0571960707       -1.0946828181       -0.1643993695
 C         -5.1650542525       -1.7086334800        0.3867545602
 C         -6.3517272490       -0.9984595475        0.4734603503
 C         -6.4065008541        0.3109859398        0.0201591016
 C         -5.2846528968        0.9144871144       -0.5272902410
 C         -4.0958695901        0.2079641822       -0.6206523915
 H         -3.2059991490        0.6429075864       -1.0463435564
 H         -5.3268564042        1.9319701479       -0.8810121812
 H         -7.3291581812        0.8648233020        0.0916624418
 H         -7.2265395270       -1.4663755262        0.8954328455
 H         -5.0763000379       -2.7294563829        0.7220550248
 H         -2.2388100393       -1.8369541183        2.0108662982
 H         -2.9686190417        0.2724098779        2.8253241083
 H         -2.5323467966        2.7021575449        2.9150190651
 H         -0.8263137202        3.7057918800        1.4479335072
 C          0.7760514369        2.4741564495       -0.3518481533
 H          1.0233103748        3.4555364070        0.0860475473
 C          0.2936630173        2.7335816323       -1.7698097778
 C         -0.7364018565        1.8975246745       -2.4600472146
 C         -1.0846741632        3.2806271784       -2.0039897335
 H         -1.2137339560        4.0502274080       -2.7497966600
 H         -1.7332266833        3.3796588023       -1.1463078002
 H         -0.5980154538        1.7131597123       -3.5146345490
 H         -1.1391500772        1.0429825793       -1.9383039499
 H          1.0893527923        3.1227005439       -2.3966634967
 O          1.8678116093        0.4442276544       -2.2847181327
