  62
        -98.94091257
 C         -2.3000517996        0.4707800692       -0.2042756331
 C         -3.5559003468        1.0079507972       -0.5754153383
 C         -4.6738509144        0.0567399961       -0.6194917738
 C         -4.4457796813       -1.2382989917       -0.3333262294
 C         -5.5021294534       -2.3034990384       -0.2881627385
 C         -6.0923167249       -2.4409479403        1.1223184201
 C         -6.5141425297       -1.1114152575        1.7479761307
 H         -6.9426940300       -1.3348209039        2.7274027487
 H         -5.6247607615       -0.5003284200        1.9187694724
 C         -7.5268451897       -0.3113258804        0.9168473709
 H         -8.0063548052       -0.9652573951        0.1876535599
 H         -8.3086151858        0.0613352645        1.5819794649
 C         -6.9376262938        0.9035222686        0.1977861154
 H         -7.7653216963        1.5134412250       -0.1736992883
 H         -6.3754497087        1.5132876475        0.9095455148
 C         -6.0260299662        0.5940593496       -0.9963590607
 H         -6.5347277803       -0.0874456340       -1.6810159708
 H         -5.8376044093        1.5343148909       -1.5227373203
 H         -5.3402610355       -2.8998399546        1.7684131931
 H         -6.9523765114       -3.1111642835        1.0725351506
 H         -6.2880946960       -2.0587478114       -0.9999522639
 H         -5.0455355944       -3.2520858563       -0.5754750800
 O         -3.2200251470       -1.7218019295       -0.0033567901
 C         -2.1182300131       -0.8825783167        0.0782809686
 O         -1.0591759542       -1.4551111817        0.4012327876
 H          1.5770700768        0.9814602880        0.4269753570
 C          1.3078425056        0.7649459273       -0.5921532566
 C          0.0004709558        0.9197297998       -1.0246910555
 C         -0.3021381149        0.6350397318       -2.3542009246
 C          0.6747618528        0.1825018048       -3.2184994328
 C          1.9734909197        0.0030245753       -2.7754188991
 C          2.2911151581        0.3005283340       -1.4558542985
 N          3.6201873441        0.1796940992       -1.0068226919
 S          3.9639069690       -0.4364639511        0.5265841575
 O          3.4861603586       -1.7967479266        0.6463129429
 O          3.5156573907        0.4959365989        1.5284360791
 C          5.7463725028       -0.4174804227        0.4526691067
 C          6.3928454841        0.7975489292        0.5796660895
 C          7.7756364990        0.8325098973        0.4992011079
 C          8.4857185055       -0.3413990754        0.2942756130
 C          7.8235814607       -1.5534393587        0.1715602106
 C          6.4399960074       -1.5948813775        0.2490854750
 H          5.8829588331       -2.5143954490        0.1661166878
 H          8.3781251475       -2.4647824186        0.0157521349
 H          9.5621107840       -0.3116714275        0.2328614558
 H          8.2941814492        1.7726218007        0.5966319475
 H          5.8000821614        1.6815885072        0.7465503570
 H          4.2048908398       -0.2869738196       -1.6885638352
 H          2.7351831661       -0.3619028833       -3.4479882941
 H          0.4233403948       -0.0415029261       -4.2444667313
 H         -1.3199594936        0.7652806441       -2.6968552345
 C         -1.1032230435        1.3994319024       -0.1152844124
 H         -1.4588232668        2.3715940855       -0.4893790518
 C         -0.6716428787        1.5633135928        1.3266485446
 C          0.0026671742        2.8243373548        1.7745254821
 C         -1.4038019678        2.5340832709        2.2020343767
 H         -1.5873899205        2.2632177067        3.2310201492
 H         -2.2035480854        3.1018006618        1.7490050501
 H          0.7930139975        2.7493670449        2.5063734257
 H          0.1581426467        3.5952823057        1.0350335140
 H         -0.3518105459        0.6280710913        1.7753450945
 O         -3.7308342719        2.2228363350       -0.8621187771
