  62
        -98.93863012
 C          1.8921442963        1.3630919653        0.3349800797
 C          2.5763482918        0.7541807204       -0.7413158367
 C          3.7483446618       -0.0776942966       -0.3972538245
 C          4.0904161073       -0.2139104190        0.8974301208
 C          5.2076386130       -1.0362855885        1.4819553952
 C          4.8821134511       -2.5391681558        1.5122463649
 C          4.2156489116       -3.0803375413        0.2495407648
 H          3.9245381231       -4.1160241626        0.4449128635
 H          3.2987805149       -2.5193483612        0.0570112809
 C          5.0886371812       -3.0697660698       -1.0030634429
 H          4.5132753387       -3.5424511723       -1.8033618270
 H          5.9754631154       -3.6824433075       -0.8255747378
 C          5.5412550736       -1.6925635061       -1.4913580796
 H          5.9545462399       -1.8242078423       -2.4956626212
 H          6.3478559555       -1.3059283915       -0.8743369738
 C          4.4256677358       -0.6590142477       -1.6146618297
 H          4.8094897899        0.2002533706       -2.1780735661
 H          3.6212581161       -1.0724200233       -2.2340257096
 H          5.8048768452       -3.0893156977        1.7032753412
 H          4.2026851834       -2.7202196924        2.3488962196
 H          6.1300671642       -0.8487569831        0.9406302957
 H          5.3483388331       -0.6911005242        2.5086247285
 O          3.3866973206        0.3795406346        1.9045548776
 C          2.2803260658        1.1687228191        1.6588865255
 O          1.7308528677        1.6265043970        2.6824928660
 O          2.2276922083        0.8875606753       -1.9433702555
 C          0.6776125908        2.2332135708        0.0686612290
 C         -0.3935238522        1.4317196053       -0.6315947948
 C         -1.1147714819        1.9051903030       -1.7193466496
 C         -2.0869493400        1.1179080161       -2.3133450757
 C         -2.3672962092       -0.1477806677       -1.8341197020
 C         -1.6653808979       -0.6231705231       -0.7329563736
 C         -0.6962664571        0.1684830161       -0.1371492521
 H         -0.1506475439       -0.2048138324        0.7213413979
 N         -1.9564641244       -1.9007481940       -0.2243420892
 S         -3.5680231224       -2.3112403516       -0.0317330614
 O         -3.5874929539       -3.2761896807        1.0452359332
 O         -4.1065642669       -2.7643573665       -1.2899100148
 C         -4.3796771651       -0.8008294155        0.4619260096
 C         -5.3714829021       -0.2593922918       -0.3300552870
 C         -5.9631414995        0.9321710475        0.0578924135
 C         -5.5512187653        1.5605127079        1.2226145469
 C         -4.5554843014        1.0020798839        2.0097380872
 C         -3.9623372849       -0.1900435800        1.6279839754
 H         -3.1883760101       -0.6508002127        2.2212806364
 H         -4.2349971003        1.4914124472        2.9156301710
 H         -6.0079694228        2.4906867905        1.5215439492
 H         -6.7391153358        1.3677239492       -0.5505694908
 H         -5.6584270230       -0.7796101101       -1.2292803188
 H         -1.4147722046       -2.1525939684        0.5889277411
 H         -3.1077089482       -0.7797160211       -2.2970630556
 H         -2.6310780182        1.4944995136       -3.1657534852
 H         -0.9095322350        2.8878858904       -2.1101717848
 H          0.2915404772        2.5228687493        1.0572305347
 C          1.0849434331        3.4849495683       -0.6802869271
 C          0.3193224314        4.7595597332       -0.4953087419
 C          1.6922377147        4.6187129027        0.0881595137
 H          2.5053806297        5.1692096985       -0.3606765447
 H          1.7869321247        4.4974415659        1.1577847883
 H          0.1914710920        5.4125179146       -1.3454426314
 H         -0.5212736444        4.7446985725        0.1816291839
 H          1.4954295236        3.2676299884       -1.6595196291
