  62
        -98.92999840
 C          2.2170790825       -0.5946273509       -0.1668858086
 C          3.4456538445       -1.0008804329       -0.7467158172
 C          4.6716451015       -0.5459952142       -0.0746724657
 C          4.5657549618        0.2324111409        1.0172767660
 C          5.7151948253        0.8396994950        1.7704125174
 C          6.2648405053        2.0582247046        1.0014887478
 C          7.6912102342        1.8834761996        0.4796096306
 H          7.8868898021        2.7017420419       -0.2166075348
 H          8.3890329195        1.9859763237        1.3132560402
 C          7.9883862005        0.5530514047       -0.2187622465
 H          8.9308766468        0.6793318641       -0.7557414760
 H          8.1578744079       -0.2239940665        0.5280442559
 C          6.9219335399        0.0606451212       -1.2055215756
 H          6.3293288693        0.8953250542       -1.5805510148
 H          7.4314425378       -0.3787978775       -2.0654949651
 C          5.9801775813       -1.0208502367       -0.6439029369
 H          6.5107883428       -1.6130206904        0.1069956745
 H          5.7007933339       -1.6966151635       -1.4577170241
 H          5.5928844468        2.2671404016        0.1664290517
 H          6.2427444044        2.9364365481        1.6484410440
 H          6.4942310769        0.0942759908        1.9144118366
 H          5.3380507940        1.1448319724        2.7466369857
 O          3.3708261607        0.6302395482        1.5246330353
 C          2.1666802364        0.2368857944        0.9522484932
 O          1.1638810752        0.6959552068        1.5288759814
 O          3.5128081691       -1.7120746400       -1.7851101808
 C          0.9390503765       -1.0619425659       -0.8380395182
 C         -0.0396409312        0.0750754960       -0.9865888559
 C          0.3241093012        1.1760941132       -1.7588399428
 C         -0.5455256822        2.2337093050       -1.9371512835
 C         -1.8082278544        2.2064330215       -1.3708395398
 C         -2.1786211454        1.1158993010       -0.5945763606
 C         -1.2942590751        0.0635728790       -0.4007290424
 H         -1.6036641812       -0.7561892993        0.2257867733
 N         -3.4438866937        1.0581717154        0.0104501095
 S         -4.2035843753       -0.4453616783        0.1116443869
 O         -3.8044926398       -1.0964409221        1.3340055585
 O         -3.9866751106       -1.1907414065       -1.1081444830
 C         -5.9129233696        0.0528230470        0.2269977632
 C         -6.4333173757        0.3842372375        1.4637732002
 C         -7.7544595532        0.7949690026        1.5459210667
 C         -8.5285738202        0.8678876781        0.3973049818
 C         -7.9928646559        0.5310882114       -0.8367450702
 C         -6.6722202656        0.1204020379       -0.9262014441
 H         -6.2161421272       -0.1613603482       -1.8616428149
 H         -8.5979639459        0.5854638949       -1.7273484234
 H         -9.5568436234        1.1862489464        0.4648220031
 H         -8.1752669929        1.0546911143        2.5038764396
 H         -5.7964618813        0.3029871274        2.3293514068
 H         -4.0713231085        1.7838064633       -0.3072219577
 H         -2.4938803505        3.0271055987       -1.5182274342
 H         -0.2448849467        3.0823349495       -2.5333346983
 H          1.3060982905        1.1915355927       -2.2128719309
 H          1.2566974383       -1.3628106781       -1.8514372210
 C          0.3179545976       -2.2954770688       -0.1998679255
 C          1.1595326708       -3.3200753834        0.4981007763
 C          0.2148461280       -2.4644861124        1.2851091168
 H         -0.6833643847       -2.9129760295        1.6853994210
 H          0.6201372775       -1.6809200319        1.9062326922
 H          0.9177160354       -4.3629768490        0.3588246224
 H          2.2181985976       -3.1230176940        0.5847171244
 H         -0.5144578951       -2.6757459917       -0.7863827534
