  62
        -98.92972171
 C         -2.6138347648       -1.2604934036       -0.2576660149
 C         -2.4326774678       -0.0531166251       -0.9704552302
 C         -3.3692374538        1.0511445605       -0.6644844296
 C         -4.3222319906        0.8625326484        0.2660219941
 C         -5.3492914337        1.8417495457        0.7695220349
 C         -4.7548096681        2.8859963812        1.7277536420
 C         -3.4291290139        3.4913485253        1.2744174495
 H         -3.0661414419        4.1352491131        2.0797976577
 H         -2.6968146008        2.6923053601        1.1446606138
 C         -3.4997108076        4.3303856242        0.0006476021
 H         -2.5135997304        4.7778256228       -0.1473645076
 H         -4.2142200855        5.1434866981        0.1465882188
 C         -3.8743316076        3.5767273198       -1.2776151510
 H         -3.6364119608        4.2305054510       -2.1218269573
 H         -4.9435831165        3.3894384360       -1.3258435438
 C         -3.1025171161        2.2801309431       -1.5009854035
 H         -3.2469148883        1.9632040942       -2.5409795559
 H         -2.0292697507        2.4824376770       -1.4097565233
 H         -4.5871097605        2.4017872015        2.6929578729
 H         -5.4903704357        3.6792188969        1.8716773064
 H         -6.0962903094        1.2580752057        1.3120565647
 H         -5.8489555273        2.3229961656       -0.0659081541
 O         -4.4524110134       -0.3170903050        0.9385989788
 C         -3.6235608147       -1.3917257008        0.7000481862
 O         -3.8813841141       -2.4018548136        1.3852301135
 O         -1.5306760036        0.1313303270       -1.8304185617
 C         -1.7530846984       -2.4962389143       -0.4697408301
 C         -0.4817102931       -2.4135053184        0.3352005226
 C         -0.1337854003       -3.4141097131        1.2338652428
 C          1.0415473833       -3.3284471806        1.9607303965
 C          1.8907414946       -2.2472621988        1.8077507829
 C          1.5513795359       -1.2418107000        0.9111530851
 C          0.3738089150       -1.3305397178        0.1833681475
 H          0.1137012061       -0.5530622548       -0.5205135946
 N          2.3993196047       -0.1227371262        0.7493927326
 S          3.9904747483       -0.4719509682        0.2926775546
 O          3.9984823582       -1.2637672327       -0.9186041966
 O          4.6732016692       -1.0471352729        1.4237252021
 C          4.6178249910        1.1639265531       -0.0256378264
 C          5.0216640742        1.9365262780        1.0464131497
 C          5.4834307087        3.2211636293        0.8088313985
 C          5.5322482777        3.7088290051       -0.4888246323
 C          5.1243298182        2.9207411302       -1.5543918499
 C          4.6598771514        1.6352500689       -1.3235821657
 H          4.3393723253        0.9854454599       -2.1223879241
 H          5.1655945028        3.3014126460       -2.5622897322
 H          5.8930428887        4.7086695259       -0.6717472931
 H          5.8033486219        3.8367729268        1.6339683464
 H          4.9734771000        1.5123483800        2.0356023373
 H          2.0047396429        0.5249879876        0.0780754333
 H          2.8142747381       -2.1764321743        2.3586524350
 H          1.3002591184       -4.1130994834        2.6557564621
 H         -0.7952347633       -4.2579740553        1.3674704712
 H         -2.3487700271       -3.3277661860       -0.0619646443
 C         -1.5093435600       -2.7952472684       -1.9446927863
 C         -0.1604184002       -2.7812944647       -2.5939263735
 C         -0.8547575701       -4.0843369159       -2.3450945797
 H         -1.2543497166       -4.6320997662       -3.1850251819
 H         -0.4684216553       -4.7088375391       -1.5532351796
 H         -0.0994595040       -2.4099357347       -3.6058174885
 H          0.7054385088       -2.5430066169       -1.9951316866
 H         -2.3358118284       -2.4624418465       -2.5644419603
