  62
        -98.94370993
 C         -1.5463033012       -1.0626330068        0.2755317139
 C         -2.5888178008       -0.5710139942        1.0993813006
 C         -3.1792647131        0.7138162402        0.7054417284
 C         -2.6595466095        1.3796826359       -0.3417885361
 C         -3.1907167151        2.6749295949       -0.8826179489
 C         -4.2370219937        2.4331897668       -1.9799184859
 C         -5.3179287746        1.4245303244       -1.5906753815
 H         -4.8600140654        0.4398269873       -1.4722238734
 H         -6.0153550461        1.3562087642       -2.4281509340
 C         -6.0881524163        1.7812438424       -0.3116813658
 H         -7.1541020282        1.6248178091       -0.4895011164
 H         -5.9496681374        2.8375687755       -0.0785979834
 C         -5.7129165975        0.9407443897        0.9102886573
 H         -5.7616127960       -0.1207312529        0.6541502756
 H         -6.4567926482        1.1231598128        1.6903083674
 C         -4.3341468797        1.2263101604        1.5194217673
 H         -4.2787805726        0.7037273829        2.4792455459
 H         -4.2276362291        2.2970767880        1.7069248792
 H         -3.7246189200        2.0608421992       -2.8699261913
 H         -4.7011977253        3.3889283029       -2.2296921637
 H         -2.3544914792        3.2379850201       -1.3011334502
 H         -3.6276497343        3.2495581141       -0.0679018273
 O         -1.6088462143        0.9170937496       -1.0612448272
 C         -1.0170192655       -0.3031942620       -0.7705611263
 O         -0.0586731161       -0.5862254999       -1.5128438450
 O         -3.0029441192       -1.1800580821        2.1241379237
 C         -0.9212742715       -2.3966639152        0.6495571131
 C          0.5786371273       -2.2526870335        0.6627039064
 C          1.4465452003       -3.0325581739       -0.0896199382
 C          2.8078419947       -2.7795913034       -0.0805549948
 C          3.3276727458       -1.7316074740        0.6569115576
 C          2.4675486202       -0.9547380263        1.4210937214
 C          1.1137262854       -1.2339126475        1.4430067570
 H          0.4493512543       -0.6096311614        2.0294551735
 N          2.9941168360        0.1842286076        2.1009050264
 S          2.7467724686        1.5755439577        1.1682321054
 O          3.3422516085        2.6598780335        1.9221667275
 O          1.3453491468        1.7515172829        0.8462049053
 C          3.7086516509        1.2333596135       -0.2846556399
 C          5.0520794429        1.5560710774       -0.2675534284
 C          5.8298608832        1.2430006904       -1.3701369577
 C          5.2535124458        0.6094134725       -2.4612455640
 C          3.9037445351        0.2932417567       -2.4606912272
 C          3.1161801716        0.6054862609       -1.3625365787
 H          2.0637028115        0.3648886250       -1.3341468393
 H          3.4518312911       -0.2020287391       -3.3050308970
 H          5.8591355875        0.3601399246       -3.3183373103
 H          6.8794864155        1.4890075246       -1.3740426767
 H          5.4509608056        2.0483869543        0.6041071296
 H          2.5487254248        0.3388343572        2.9968477149
 H          4.3804254561       -1.5012040949        0.6440860921
 H          3.4680257066       -3.3903710952       -0.6764872328
 H          1.0528109970       -3.8204503273       -0.7104276470
 H         -1.2577930679       -2.5732661529        1.6856089898
 C         -1.4156761735       -3.5749630630       -0.1754993094
 C         -2.7665404251       -3.5474049303       -0.8241436160
 C         -1.5297756860       -3.5127750864       -1.6681746312
 H         -1.2766689963       -4.3944686713       -2.2383944021
 H         -1.2598485016       -2.5865041426       -2.1502170122
 H         -3.3604125505       -4.4489771456       -0.8121275532
 H         -3.3474092013       -2.6410386950       -0.7300908097
 H         -1.1102690061       -4.5251537131        0.2515178912
