  62
        -98.94443214
 C          1.9581400121       -1.1142044284        0.1970495633
 C          2.4219030464        0.0591831041        0.8386926641
 C          3.8758532454        0.2764533750        0.7974415308
 C          4.6630999035       -0.6317234607        0.1926214719
 C          6.1498969839       -0.5063984597        0.0310711047
 C          6.5074159516        0.1889321697       -1.2901262890
 C          5.7346448105        1.4850509021       -1.5351073978
 H          6.0899101967        1.9018166344       -2.4800371899
 H          4.6755815065        1.2507099799       -1.6650556548
 C          5.8863324497        2.5342042718       -0.4248755758
 H          6.7602753702        2.3042382281        0.1856841649
 H          6.0601646875        3.5090276012       -0.8853574904
 C          4.6615977114        2.6817778784        0.4801152115
 H          3.7662108510        2.8194708033       -0.1317164991
 H          4.7891657005        3.5865942846        1.0804939264
 C          4.4060267635        1.5216277497        1.4505082936
 H          5.3156369566        1.3056833482        2.0147496511
 H          3.6323517386        1.8422631433        2.1545638513
 H          7.5790405808        0.3962229815       -1.2920105611
 H          6.2924872140       -0.4980638317       -2.1118509345
 H          6.5553355244        0.0546325324        0.8707383921
 H          6.5819135128       -1.5085162587        0.0325665811
 O          4.1813356660       -1.7580094142       -0.3925255172
 C          2.8217529593       -2.0211124982       -0.4172200849
 O          2.5110018998       -3.0750209018       -1.0081785454
 H         -1.6253128404        0.1212014830        1.1374548403
 C         -1.3100476988        0.3894438145        0.1438720718
 C         -0.2720497263       -0.2843092049       -0.4784827660
 C          0.1127797103        0.1163106949       -1.7564632830
 C         -0.5121915279        1.1754160529       -2.3837385781
 C         -1.5435020633        1.8519046475       -1.7550591370
 C         -1.9398175715        1.4577227257       -0.4834098981
 N         -2.9678377743        2.1433027598        0.1817920210
 S         -4.1521067125        1.3232170734        1.0265218289
 O         -5.1876961995        2.3096238957        1.2411746954
 O         -3.6010232780        0.7095477660        2.2068165808
 C         -4.7298672277        0.0788190860       -0.1126203544
 C         -4.2322618709       -1.2058186552       -0.0357087909
 C         -4.6475613493       -2.1406685201       -0.9711503347
 C         -5.5465921695       -1.7769266108       -1.9614912739
 C         -6.0408240359       -0.4825488982       -2.0225078447
 C         -5.6266228048        0.4572501821       -1.0931477355
 H         -5.9951025116        1.4702660482       -1.0983283352
 H         -6.7441036631       -0.2044427653       -2.7908434141
 H         -5.8658961851       -2.5079536809       -2.6874433877
 H         -4.2661888918       -3.1482589953       -0.9231026065
 H         -3.5388930195       -1.4535018356        0.7506670080
 H         -3.3649088938        2.9098924861       -0.3411028527
 H         -2.0270358451        2.6868927472       -2.2389467295
 H         -0.1966879531        1.4782590562       -3.3708145106
 H          0.9215185088       -0.4112167074       -2.2445820085
 C          0.4717313773       -1.4272043533        0.1678002448
 H          0.3628861277       -2.3142063420       -0.4731186668
 C         -0.0162862673       -1.7714056346        1.5588033158
 C         -1.1704906040       -2.7089611589        1.7404501487
 C          0.2182436568       -3.1534279668        2.0871865701
 H          0.4810598907       -3.2696746660        3.1279364429
 H          0.7094155578       -3.8574742290        1.4310246970
 H         -1.6186189271       -3.1243975229        0.8502226622
 H         -1.8665803968       -2.5194265054        2.5445355172
 H          0.0896627679       -0.9497343563        2.2582188282
 O          1.6661681354        0.8846861784        1.4148393995
