  62
        -98.94466630
 C         -1.8221209467       -0.1078386202        0.1909823416
 C         -2.8718538127       -0.8171626510        0.8223411178
 C         -4.1971396467       -0.1865025853        0.7685127071
 C         -4.3320181458        1.0082726987        0.1642691382
 C         -5.6316939324        1.7387968079       -0.0079912473
 C         -6.3042578863        1.3678567463       -1.3371278218
 C         -6.3916768176       -0.1380260440       -1.5855309380
 H         -6.9106781871       -0.2810997128       -2.5358390140
 H         -5.3824038547       -0.5378858736       -1.7076949906
 C         -7.1173585149       -0.9220776284       -0.4831517251
 H         -7.7165046575       -0.2411442836        0.1224455508
 H         -7.8050245079       -1.6292129779       -0.9518005478
 C         -6.1962707768       -1.7345967585        0.4288393585
 H         -5.5293364956       -2.3504102647       -0.1797569213
 H         -6.8167508425       -2.4116660191        1.0219363191
 C         -5.3409964363       -0.9216441903        1.4089060096
 H         -5.9771031411       -0.2333489493        1.9689840761
 H         -4.8878213280       -1.6235191798        2.1150561261
 H         -7.3067260896        1.7995805722       -1.3492793734
 H         -5.7310257550        1.8165801519       -2.1517963801
 H         -6.2909390779        1.4993914105        0.8240884029
 H         -5.4269025551        2.8106956152       -0.0013675993
 O         -3.2949602772        1.6725191436       -0.4070615815
 C         -2.0173844489        1.1301848050       -0.4210646922
 O         -1.1671859558        1.8371804798       -0.9942469908
 H          1.9213843828        0.3923716454       -0.8016340503
 C          1.6872581305        0.6936658673        0.2053763631
 C          0.5439649016        0.2308012434        0.8362741849
 C          0.2734103693        0.6645792458        2.1328688700
 C          1.1121708483        1.5563175087        2.7702088818
 C          2.2467298314        2.0278324106        2.1324990945
 C          2.5298715972        1.5967144300        0.8426489019
 N          3.6667032547        2.0681756996        0.1755446546
 S          4.4828874048        1.1367123872       -0.9347548882
 O          5.8058667788        1.7233581626       -0.9855073236
 O          3.7744918415        1.0870316387       -2.1890466583
 C          4.5788272672       -0.5004231214       -0.2290275895
 C          4.9066280487       -0.6436968399        1.1047741122
 C          4.9952794522       -1.9186674689        1.6395703060
 C          4.7626564186       -3.0243817070        0.8360782860
 C          4.4436541155       -2.8648640285       -0.5030976862
 C          4.3504428291       -1.5914288918       -1.0417179809
 H          4.0997318814       -1.4200079970       -2.0761099387
 H          4.2642390899       -3.7247060234       -1.1285423606
 H          4.8309349623       -4.0157561806        1.2554396567
 H          5.2446841945       -2.0457139826        2.6806872202
 H          5.0879037278        0.2303302554        1.7083397291
 H          4.2798334012        2.6591189714        0.7156683965
 H          2.8992948016        2.7340141486        2.6228141151
 H          0.8840902830        1.8885881425        3.7717106099
 H         -0.6160563151        0.2992761570        2.6278833611
 C         -0.4300140702       -0.7156305132        0.1824716316
 H         -0.5037597778       -1.6185781683        0.8065102986
 C         -0.0471328002       -1.1276989576       -1.2224276128
 C          0.9164310888       -2.2538217179       -1.4411204495
 C         -0.5385544321       -2.4434789738       -1.7449710309
 H         -0.8484165306       -2.5055872297       -2.7774864672
 H         -1.1276888180       -3.0523631784       -1.0747951259
 H          1.3228506254       -2.7405463194       -0.5676715280
 H          1.6056597254       -2.1822822470       -2.2684306642
 H         -0.0241479199       -0.2925560164       -1.9144402084
 O         -2.7065649928       -1.9218276776        1.4060501966
