  62
        -98.94317110
 C         -1.6970878538       -0.9824942073        0.2844656790
 C         -2.8936738489       -0.8160506811        1.0324537115
 C         -3.6354255436        0.4289567732        0.8079333777
 C         -3.1325480390        1.3632563099       -0.0182295946
 C         -3.7504898740        2.6998473514       -0.3264484628
 C         -4.8207441419        2.6524951759       -1.4257121079
 C         -6.1452424102        2.0061709199       -1.0176843508
 H         -6.5058922268        2.4680001034       -0.0980245646
 H         -6.8688306688        2.2358610406       -1.8024145222
 C         -6.0789161072        0.4827837766       -0.8393557663
 H         -5.1783988694        0.0982685301       -1.3241656337
 H         -6.9324558007        0.0197558022       -1.3397770950
 C         -6.0975979295        0.0136013436        0.6156620675
 H         -6.0114715642       -1.0761859604        0.6259615396
 H         -7.0532202665        0.2784686599        1.0734618145
 C         -4.9662349988        0.5878759933        1.4784383102
 H         -5.1584522047        1.6374369963        1.7000963905
 H         -4.9342585681        0.0311117385        2.4181807793
 H         -4.4107904708        2.1269036430       -2.2914380284
 H         -5.0225632051        3.6825763705       -1.7285272396
 H         -2.9399548117        3.3485423175       -0.6651615655
 H         -4.1790404002        3.1241517007        0.5819008108
 O         -1.9555578813        1.1949170240       -0.6722725591
 C         -1.2239469509        0.0151904611       -0.5703504668
 O         -0.2037283770        0.0110042268       -1.2829454549
 O         -3.3208899812       -1.6703314943        1.8530235680
 C         -0.9181974608       -2.2676584159        0.5141566544
 C          0.5102024489       -1.9310022187        0.8515393470
 C          0.8484719510       -1.5724327358        2.1528483583
 C          2.1395793535       -1.1894512205        2.4665545385
 C          3.1106802367       -1.1236995357        1.4825038450
 C          2.7737511430       -1.4564796693        0.1770020408
 C          1.4900869100       -1.8890009553       -0.1269773927
 H          1.2404959571       -2.1457127668       -1.1443772487
 N          3.7311841357       -1.3299465711       -0.8429960183
 S          4.7479724944       -0.0041201490       -0.8035101104
 O          5.0756603028        0.2654677810       -2.1870620580
 O          5.8752451012       -0.2967654597        0.0501285513
 C          3.8313815451        1.3638573635       -0.1063760598
 C          4.4687060030        2.1743252480        0.8129414309
 C          3.7869886751        3.2557441394        1.3463507314
 C          2.4802651915        3.5067066406        0.9569094946
 C          1.8552457195        2.6835545180        0.0339241977
 C          2.5336465551        1.6043135358       -0.5105470427
 H          2.0364208634        0.9546099221       -1.2132494144
 H          0.8341539991        2.8598259558       -0.2667818578
 H          1.9446251089        4.3441591007        1.3758122065
 H          4.2732754545        3.8953838288        2.0652313095
 H          5.4807881416        1.9351425209        1.0972165101
 H          3.3514667522       -1.4642394751       -1.7689469018
 H          4.1193839226       -0.8144817980        1.7052633983
 H          2.3915691541       -0.9264496896        3.4824677208
 H          0.0833997604       -1.5905525013        2.9163671006
 H         -1.3871261832       -2.7109724194        1.4069437432
 C         -1.0375410843       -3.3023102144       -0.5950369876
 C         -2.3646477586       -3.5650856976       -1.2405382192
 C         -1.2526544577       -2.9530233090       -2.0357943352
 H         -0.7643844397       -3.5615047981       -2.7835397400
 H         -1.3226097778       -1.9107915049       -2.3038545812
 H         -2.6487369311       -4.5858124006       -1.4472416718
 H         -3.1896939552       -2.9317220137       -0.9480513210
 H         -0.4158713138       -4.1707601296       -0.3978362150
