  62
        -98.94383371
 C         -1.5054013304       -1.5775382098       -0.1638483435
 C         -1.3869555643       -0.2689970433        0.3686730678
 C         -2.6503013870        0.3641307461        0.7781786669
 C         -3.8038103623       -0.3225775222        0.7080451358
 C         -5.1613173089        0.1766310542        1.1233356829
 C         -5.8819700303        1.0006367606        0.0476498232
 C         -5.3099561073        2.3985257720       -0.1907385470
 H         -6.0326302886        2.9398799722       -0.8046276818
 H         -5.2329056883        2.9247498170        0.7611668756
 C         -3.9493494227        2.4112268225       -0.9013435089
 H         -3.7767318411        1.4411190737       -1.3732248273
 H         -3.9636544027        3.1558513208       -1.7004722406
 C         -2.7625694607        2.7402424237        0.0045134278
 H         -1.8504722411        2.6783199034       -0.5933444846
 H         -2.8598210762        3.7634736448        0.3735781834
 C         -2.6008052528        1.7996918117        1.2057198469
 H         -1.6184757703        1.9758334024        1.6506035287
 H         -3.3690891748        2.0030469467        1.9512539751
 H         -5.8725289495        0.4379261244       -0.8888779804
 H         -6.9234792205        1.1050578291        0.3606556559
 H         -5.7641716917       -0.7079341287        1.3404309472
 H         -5.0707775496        0.7672911785        2.0354268886
 O         -3.8630277183       -1.6063072176        0.2611643694
 C         -2.7278643486       -2.2529663349       -0.2005900731
 O         -2.9318655781       -3.4179827285       -0.5985125083
 O         -0.3011428670        0.3474895208        0.5049536721
 C         -0.2929925227       -2.3436431095       -0.6647264397
 C          0.8402756341       -2.2024603418        0.3200630047
 C          0.6924863073       -2.7553974203        1.5896789828
 C          1.6924040333       -2.6323260641        2.5343275624
 C          2.8582370249       -1.9495608455        2.2348641171
 C          3.0155088872       -1.3964141606        0.9697903617
 C          2.0143462042       -1.5321489610        0.0181556034
 H          2.1588024489       -1.0880491886       -0.9517451267
 N          4.1926044755       -0.7138149773        0.6369230586
 S          4.2082223723        0.5290033937       -0.4727616882
 O          4.0670530215        0.0048068437       -1.8092171400
 O          5.4570813632        1.2139456629       -0.2045009163
 C          2.8556386133        1.6246166139       -0.0877380827
 C          2.6552542896        2.0088653151        1.2217933497
 C          1.6491373747        2.9162390165        1.5056737980
 C          0.8706503196        3.4289824858        0.4810703920
 C          1.0855924837        3.0336093410       -0.8285621026
 C          2.0857731939        2.1209995294       -1.1175917514
 H          2.2784628439        1.7791559539       -2.1221490407
 H          0.4750812167        3.4278537960       -1.6263307312
 H          0.0862217556        4.1351374273        0.7050547367
 H          1.4712669793        3.2175587373        2.5258648515
 H          3.2765310422        1.5992243222        2.0018753978
 H          4.8305750372       -0.5495352141        1.4008478543
 H          3.6392180049       -1.8451605810        2.9726042648
 H          1.5622325446       -3.0647211706        3.5150541502
 H         -0.2255288519       -3.2763085978        1.8274466803
 H         -0.6045974406       -3.4013431145       -0.6730677422
 C          0.1110119501       -1.9975505653       -2.0899628062
 C         -0.9161712612       -1.6098920026       -3.1101987763
 C          0.0720221635       -0.5969041571       -2.6194394049
 H          0.8638475456       -0.2857994120       -3.2859795150
 H         -0.2692935771        0.1805162965       -1.9544652603
 H         -0.8117692416       -1.9908774493       -4.1150344032
 H         -1.9414177468       -1.5287553963       -2.7787170783
 H          0.9248016281       -2.6248066386       -2.4426842588
