  62
        -98.93865333
 C         -2.6037970968       -1.1644085599        0.3361936623
 C         -2.6240980243       -0.3420871001       -0.8153289040
 C         -3.3576505120        0.9298975889       -0.6928424668
 C         -3.9486301999        1.2443868859        0.4725421310
 C         -4.7760918003        2.4609862824        0.8035095890
 C         -4.2526649399        3.8221624456        0.3227449655
 C         -2.7230548503        3.9475868935        0.2605910918
 H         -2.4191531787        4.8564506474        0.7836316961
 H         -2.2527014296        3.1067990486        0.7743163682
 C         -2.1872584974        4.0317391228       -1.1709226734
 H         -2.8279336060        4.7056313830       -1.7441941462
 H         -1.1869258852        4.4715517393       -1.1455457068
 C         -2.0710396451        2.6999762533       -1.9124564310
 H         -1.2476081620        2.1131793554       -1.4933154206
 H         -1.8047122122        2.9169231745       -2.9498706431
 C         -3.3323222971        1.8204906937       -1.9011040429
 H         -4.2333911019        2.4244256403       -1.9766323225
 H         -3.2822205560        1.1547653361       -2.7669045509
 H         -4.6640287359        4.0443705134       -0.6607954891
 H         -4.6502952107        4.5732165855        1.0071574203
 H         -5.7834405559        2.3051692010        0.4071993765
 H         -4.8549946375        2.4629229172        1.8932212575
 O         -3.8888813136        0.4274403675        1.5628118705
 C         -3.2099926677       -0.7790787981        1.5295271330
 O         -3.2128647017       -1.4018115880        2.6116973943
 H         -0.2819758357       -0.7105541786        1.4841460602
 C          0.2604750050       -1.2520559533        0.7172453753
 C         -0.4021891238       -2.2348006466       -0.0084812297
 C          0.3033753266       -2.9222843392       -0.9863008656
 C          1.6302781214       -2.6162809950       -1.2370765024
 C          2.2822924943       -1.6316493043       -0.5182830360
 C          1.5877885218       -0.9425566024        0.4677799443
 N          2.2446684563        0.0522553625        1.2161998049
 S          3.0216127032        1.2786964996        0.3678352459
 O          3.0515828044        2.4037706975        1.2777086862
 O          2.4078346931        1.5080768759       -0.9191722033
 C          4.6768752894        0.6568015909        0.1598020022
 C          5.3851296196        0.3043844300        1.2920465392
 C          6.6741986034       -0.1835214621        1.1499245869
 C          7.2312553241       -0.3066295237       -0.1144312240
 C          6.5088090140        0.0560517966       -1.2408489824
 C          5.2178802185        0.5433806315       -1.1057469787
 H          4.6155402667        0.8317316127       -1.9526182093
 H          6.9436567200       -0.0395225858       -2.2227805823
 H          8.2345382356       -0.6874196298       -0.2224834069
 H          7.2390440683       -0.4663845665        2.0235390542
 H          4.9164739616        0.4196908118        2.2550769946
 H          1.6699632731        0.4473335372        1.9469783890
 H          3.3132271131       -1.3872306531       -0.7154476967
 H          2.1642499915       -3.1526231688       -2.0065565838
 H         -0.1883160389       -3.6890341984       -1.5617037041
 C         -1.8565312582       -2.4860800501        0.3107982920
 H         -1.9161321240       -2.8883760601        1.3328723200
 C         -2.5305882427       -3.4563436656       -0.6358016196
 C         -2.4150149130       -4.9327878532       -0.4080700452
 C         -3.7150146568       -4.2340065471       -0.1493174993
 H         -4.5370009234       -4.4004485220       -0.8291427389
 H         -4.0214515335       -4.0801283711        0.8754009800
 H         -1.8401626446       -5.2634931731        0.4436355092
 H         -2.3473944469       -5.5834152741       -1.2667860125
 H         -2.5554646993       -3.0924724071       -1.6563636609
 O         -2.0675846280       -0.6552184822       -1.8990543093
