  62
        -98.94495540
 C         -1.8693463330       -0.3917563289        0.0347649391
 C         -2.9361075167       -0.5095297424        0.9663561518
 C         -4.0950216224        0.3605310589        0.7468979382
 C         -4.0899878853        1.2269265087       -0.2818562742
 C         -5.1833331279        2.2007531388       -0.6278584501
 C         -6.3207910644        1.5935857751       -1.4606809630
 C         -7.2502714804        0.6465755692       -0.7004998258
 H         -7.6055855150        1.1381182780        0.2057443265
 H         -8.1193696682        0.4713954862       -1.3377594844
 C         -6.6205959578       -0.7067619439       -0.3420309841
 H         -5.7272943945       -0.8653046910       -0.9505169919
 H         -7.3201443143       -1.5095364601       -0.5856213702
 C         -6.2482835996       -0.8622086236        1.1324784894
 H         -7.1531589946       -0.8376719405        1.7437024265
 H         -5.7781323463       -1.8397214013        1.2660583833
 C         -5.2777221348        0.2052766255        1.6544671591
 H         -5.7938690667        1.1579754555        1.7719266232
 H         -4.9073315952       -0.1152514012        2.6312473448
 H         -5.8869235995        1.0700637239       -2.3157787313
 H         -6.9187301091        2.4221496675       -1.8473521753
 H         -5.5910541685        2.6331650869        0.2864334111
 H         -4.7168422755        2.9977631491       -1.2110881102
 O         -3.0421599584        1.3290619721       -1.1387983168
 C         -1.9186653294        0.5226833775       -1.0171359256
 O         -1.0649156828        0.7367493557       -1.9026017283
 H          0.8062425026        0.7291272856       -0.7294459384
 C          1.1399106190        0.4260089160        0.2517850170
 C          0.4700437538       -0.5937370325        0.9133294436
 C          0.9029871055       -0.9587918048        2.1824224648
 C          1.9782240066       -0.3179784598        2.7739384701
 C          2.6441267846        0.6967749687        2.1109324875
 C          2.2138693383        1.0722288573        0.8447774853
 N          2.8996353981        2.0933141289        0.1535744701
 S          4.5324562455        1.8028210425       -0.0981051822
 O          5.2592432825        2.1033292593        1.1100173521
 O          4.8948891760        2.5767706712       -1.2640624663
 C          4.6191508024        0.0548620023       -0.4421699450
 C          5.1080293678       -0.8125516961        0.5131273356
 C          5.0898794937       -2.1733922718        0.2527801644
 C          4.5817957535       -2.6403841921       -0.9491723318
 C          4.0968980940       -1.7553602152       -1.8999059457
 C          4.1103146509       -0.3942197331       -1.6445603633
 H          3.7426345816        0.3224609499       -2.3618537180
 H          3.7046523260       -2.1187055207       -2.8364172785
 H          4.5638795687       -3.7004567481       -1.1476115755
 H          5.4669239481       -2.8644645172        0.9891726104
 H          5.4938620771       -0.4072829293        1.4339150987
 H          2.4526316233        2.3393969824       -0.7186157108
 H          3.4880532234        1.2044308923        2.5495200224
 H          2.3020356561       -0.6124677820        3.7604065286
 H          0.3825180209       -1.7444463043        2.7101831269
 C         -0.6799669508       -1.3128911486        0.2499397875
 H         -1.0397775625       -2.0793304831        0.9492426872
 C         -0.2111323719       -2.0013752362       -1.0180100113
 C          0.6187402570       -3.2432355178       -0.9022019212
 C         -0.7947429069       -3.3289281679       -1.3930570175
 H         -0.9698066543       -3.5368927325       -2.4380250893
 H         -1.5399570680       -3.7516785511       -0.7349784494
 H          1.4196718547       -3.3932276673       -1.6088116820
 H          0.8336218041       -3.6083061802        0.0903524791
 H          0.0170973892       -1.3145382003       -1.8222520181
 O         -2.9182446598       -1.3119071618        1.9368053293
