  62
        -98.94328904
 C         -1.2458865939       -0.6158749869        0.5664779742
 C         -1.9631145797       -0.4409832451       -0.6425119724
 C         -2.9942581856        0.6063224398       -0.6231359643
 C         -3.1326449841        1.3956592557        0.4561787548
 C         -4.1255677409        2.5148077529        0.6158535152
 C         -5.5159597335        2.0531751682        1.0744679719
 C         -6.3414398189        1.3201388994        0.0160638098
 H         -7.3615451971        1.2500168012        0.3988001514
 H         -6.3756832709        1.9192573612       -0.8943894937
 C         -5.8400535579       -0.0928091168       -0.3135913430
 H         -5.1686818614       -0.4345028899        0.4775638710
 H         -6.6858796436       -0.7834760007       -0.3355310757
 C         -5.1220604048       -0.2130860868       -1.6579175313
 H         -5.8228331930        0.0001671687       -2.4680010535
 H         -4.7794293893       -1.2446472804       -1.7722188775
 C         -3.9057577267        0.7103861989       -1.8084501193
 H         -3.3401306838        0.3965022737       -2.6893645947
 H         -4.2298541757        1.7411646710       -1.9510522834
 H         -5.3991676045        1.4142811300        1.9530273671
 H         -6.0685325274        2.9436945032        1.3828444888
 H         -3.7165793264        3.1870279350        1.3735326092
 H         -4.2126399711        3.0640679688       -0.3222291175
 O         -2.3402864770        1.2735565307        1.5550668218
 C         -1.3922369549        0.2666172340        1.6392795007
 O         -0.7408969899        0.2668799361        2.7042161425
 H          1.0318508730        0.4722219735       -0.1860647047
 C          1.3336334027       -0.3966011241       -0.7519676654
 C          0.7676131552       -1.6307104278       -0.4595914365
 C          1.1329413437       -2.7263588455       -1.2298245272
 C          2.0392500636       -2.5779823546       -2.2659558192
 C          2.6192095938       -1.3521366047       -2.5371257771
 C          2.2571717771       -0.2489026337       -1.7722960903
 N          2.8236743681        1.0158937653       -1.9977659356
 S          3.1513151886        1.9927548624       -0.6809070830
 O          1.9451806102        2.6269499799       -0.2091162935
 O          4.1887950399        2.8878978854       -1.1485914644
 C          3.8163712534        0.8866550088        0.5521716381
 C          5.0336307791        0.2915566825        0.2805103082
 C          5.5580105291       -0.6129553696        1.1884522938
 C          4.8570470077       -0.9106007738        2.3474856813
 C          3.6411732116       -0.2995487401        2.6099279497
 C          3.1125049114        0.6089624746        1.7058469164
 H          2.1644977371        1.0931238554        1.8845345025
 H          3.0903157438       -0.5263622195        3.5091120291
 H          5.2600030131       -1.6204911677        3.0523926442
 H          6.5063653610       -1.0852030638        0.9894364070
 H          5.5534388257        0.5558067021       -0.6259497733
 H          3.5666775933        1.0362065490       -2.6805817483
 H          3.3329547385       -1.2428319653       -3.3390626000
 H          2.3059556512       -3.4342207293       -2.8665676705
 H          0.6928237609       -3.6905209119       -1.0361550997
 C         -0.1810356265       -1.6882606017        0.7126007646
 H          0.3943242570       -1.3891586966        1.6052608293
 C         -0.7224909155       -3.0813266948        0.9977102172
 C         -2.0787251102       -3.2738726865        1.6070514061
 C         -1.8256360386       -3.6978932171        0.1931530096
 H         -1.7731716037       -4.7557002856       -0.0199751932
 H         -2.2469872086       -3.1103832749       -0.6062760785
 H         -2.1989493646       -4.0355206214        2.3629544104
 H         -2.6799443306       -2.3918945151        1.7769153966
 H          0.0558766269       -3.7521243940        1.3479198878
 O         -1.7679588708       -1.1154906362       -1.6858603680
