  62
        -98.94092032
 C         -2.2875539731       -0.5177556698        0.1631467232
 C         -3.5600048617       -1.0467954004        0.4861990218
 C         -4.6493632481       -0.0696198908        0.6100772936
 C         -4.3812304249        1.2379495770        0.4389596439
 C         -5.4042137039        2.3351458463        0.4865665915
 C         -5.9823140546        2.6162741305       -0.9074752016
 C         -6.4416304568        1.3614758620       -1.6501329471
 H         -6.8591829276        1.6844063383       -2.6062723998
 H         -5.5704792591        0.7412015764       -1.8736045354
 C         -7.4815969105        0.5218047200       -0.8951939187
 H         -8.2713572281        0.2339284880       -1.5922156376
 H         -7.9443027937        1.1226309858       -0.1114999527
 C         -6.9327224842       -0.7697263886       -0.2861483459
 H         -7.7803195685       -1.3853341489        0.0262978991
 H         -6.3846947770       -1.3298143984       -1.0480144477
 C         -6.0193110220       -0.5963444116        0.9338966020
 H         -6.5108305201        0.0369711456        1.6750249587
 H         -5.8627348308       -1.5850557383        1.3749460211
 H         -5.2129536867        3.1071744756       -1.5080815011
 H         -6.8214644757        3.3059913726       -0.8003096687
 H         -6.2010254152        2.0523671022        1.1716585005
 H         -4.9201471567        3.2396585586        0.8585984627
 O         -3.1402688560        1.7109444478        0.1538626684
 C         -2.0644749961        0.8488086534       -0.0021181928
 O         -0.9886516174        1.4151542860       -0.2765082134
 H          1.5629133284       -1.0030911447       -0.5175228950
 C          1.2995191565       -0.8971262542        0.5205428502
 C         -0.0052072211       -1.0966921495        0.9422125004
 C         -0.2997832542       -0.9536563210        2.2962493342
 C          0.6828023499       -0.5970677103        3.1981127121
 C          1.9787916211       -0.3708375853        2.7683414173
 C          2.2876048330       -0.5248261240        1.4225546457
 N          3.6123301800       -0.3500016902        0.9770889999
 S          3.9190036194        0.4631009919       -0.4713215333
 O          3.3931082892        1.8094535160       -0.4186199682
 O          3.4916466741       -0.3558039604       -1.5763786165
 C          5.7019906436        0.5018323711       -0.4158906765
 C          6.3523612774        1.6713581295       -0.0720009757
 C          7.7374276525        1.6765626474       -0.0139035784
 C          8.4442510526        0.5175251584       -0.2960170189
 C          7.7773282335       -0.6491686465       -0.6399925100
 C          6.3931205708       -0.6604936236       -0.7016167511
 H          5.8326821501       -1.5398149804       -0.9725119545
 H          8.3305591098       -1.5476802186       -0.8609019331
 H          9.5217987715        0.5242123735       -0.2499375300
 H          8.2583034480        2.5828162996        0.2501631084
 H          5.7609202925        2.5496184156        0.1319186979
 H          4.2024133447        0.0352642656        1.7038069797
 H          2.7448601125       -0.0790800473        3.4710447210
 H          0.4379983875       -0.4839950592        4.2436988018
 H         -1.3162449280       -1.1172223294        2.6285795696
 C         -1.1181692817       -1.4706070633       -0.0045449988
 H         -1.5020612487       -2.4596327159        0.2881530372
 C         -0.6892465874       -1.5268787325       -1.4552892318
 C         -0.0398194013       -2.7616885982       -2.0019884289
 C         -1.4398762307       -2.4104633509       -2.4042745643
 H         -1.6168014929       -2.0553139090       -3.4084884571
 H         -2.2514630269       -2.9959965564       -1.9973218265
 H          0.7520507132       -2.6451148304       -2.7266409741
 H          0.0995921025       -3.5915442354       -1.3257777938
 H         -0.3509099873       -0.5654636535       -1.8286750898
 O         -3.7721601432       -2.2758893344        0.6677113485
