  62
        -98.93687399
 C          2.6038529111        1.2332265992        0.1847370181
 C          2.6850138162        0.1799496705       -0.7532189195
 C          3.9138564934       -0.6396631810       -0.7254709851
 C          4.8767415273       -0.3349785897        0.1645900859
 C          6.1838632979       -1.0436117387        0.4012021670
 C          6.0113118982       -2.3566799059        1.1821514682
 C          4.8430980225       -3.2271926337        0.7262714941
 H          4.7598757362       -4.0633353929        1.4256321318
 H          3.9176916323       -2.6525940053        0.7979766957
 C          4.9731714243       -3.8066666685       -0.6802996716
 H          5.8783539105       -4.4157450407       -0.7342171261
 H          4.1177582603       -4.4683161764       -0.8385307099
 C          5.0038369344       -2.7897175675       -1.8230508739
 H          4.8554172003       -3.3434347121       -2.7548010886
 H          5.9783971125       -2.3151182197       -1.8993523144
 C          3.9050117102       -1.7328431113       -1.7667799690
 H          2.9329309604       -2.2298388428       -1.6703331173
 H          3.8687747085       -1.2170791202       -2.7340820579
 H          5.8477156250       -2.1046688665        2.2328162155
 H          6.9407884959       -2.9242545037        1.1125824858
 H          6.6905454963       -1.2172014750       -0.5433424488
 H          6.8049951569       -0.3669470742        0.9922292346
 O          4.7544207265        0.6982391192        1.0477370106
 C          3.6308178237        1.4985588585        1.0885217204
 O          3.6611417135        2.3952652111        1.9565286366
 O          1.7722780107       -0.0771874049       -1.5816546023
 C          1.3728966965        2.1196574767        0.2242681864
 C          0.1376436700        1.2843134553        0.4591288107
 C          0.1340367346        0.3728309292        1.5121447907
 C         -0.9771185186       -0.4055915081        1.7703186765
 C         -2.1129514207       -0.2926324081        0.9869726876
 C         -2.1274157405        0.6236124179       -0.0543395430
 C         -1.0083029415        1.4081529455       -0.3094046504
 H         -1.0368703870        2.1143921645       -1.1245807343
 N         -3.2727795274        0.7428305819       -0.8563440042
 S         -4.7806277370        0.8328711463       -0.1301926675
 O         -5.6192207991        1.5141860564       -1.0921333618
 O         -4.7008980372        1.4250076880        1.1848351009
 C         -5.3032271157       -0.8648117773       -0.0081614817
 C         -5.3258826357       -1.6231925046       -1.1621719011
 C         -5.7400832262       -2.9433066461       -1.0872739369
 C         -6.1249058490       -3.4792023362        0.1328109874
 C         -6.1001008121       -2.7037379173        1.2817647500
 C         -5.6862461398       -1.3824094306        1.2135544136
 H         -5.6471163156       -0.7436309048        2.0817171337
 H         -6.4005982938       -3.1219667956        2.2290529532
 H         -6.4467675821       -4.5071829962        0.1882004923
 H         -5.7606132109       -3.5496100458       -1.9785732189
 H         -5.0222242887       -1.1695420529       -2.0908396223
 H         -3.1844078412        1.4115542464       -1.6072877098
 H         -2.9813479073       -0.9007316914        1.1802487039
 H         -0.9596809622       -1.1113774439        2.5871110351
 H          1.0213240130        0.2823361292        2.1247447484
 H          1.5032927723        2.7816597986        1.0932373480
 C          1.3092919403        2.9694768564       -1.0279674833
 C          0.6417563625        4.3108702655       -0.9994106594
 C          2.1344216136        4.2178588562       -1.0954014664
 H          2.6090933208        4.4731434698       -2.0309393640
 H          2.7223216639        4.4701267999       -0.2247746060
 H          0.0934959522        4.6352988937       -1.8714591089
 H          0.2131609716        4.6369900065       -0.0635186435
 H          1.2298601479        2.3742805912       -1.9306920869
