  62
        -98.93793517
 C         -0.7566416218       -1.7771692699       -0.3815265166
 C         -1.1572765187       -0.4606938572       -0.7124888882
 C         -2.3578742546        0.0533389134       -0.0206661070
 C         -2.9499780569       -0.6880404956        0.9316093597
 C         -4.1180083793       -0.3884050798        1.8487343410
 C         -5.0636350774        0.7736944243        1.5558532572
 C         -5.9127167195        0.6055575540        0.2965888615
 H         -6.6310782040       -0.2001942265        0.4671644776
 H         -6.4773327043        1.5274297524        0.1409140794
 C         -5.1390812198        0.2741578640       -0.9768810841
 H         -4.6577249458       -0.7000416543       -0.8695235764
 H         -5.8611918165        0.1888122632       -1.7933961051
 C         -4.0892299421        1.3041983074       -1.3891104070
 H         -3.7411162506        1.0343229235       -2.3894410302
 H         -4.5499007993        2.2919554946       -1.4498196485
 C         -2.8506818614        1.3955611825       -0.4793883450
 H         -2.0343927978        1.8311253921       -1.0622066446
 H         -3.0292031773        2.0483544161        0.3725821563
 H         -4.5104440586        1.7077095913        1.5214968039
 H         -5.7452232456        0.8414402330        2.4083475522
 H         -4.6970032580       -1.3158068502        1.9069905400
 H         -3.6788245997       -0.2360426289        2.8414849176
 O         -2.4843194718       -1.9279539972        1.2671636408
 C         -1.4046084686       -2.4991819772        0.6210023384
 O         -1.1226914018       -3.6492983054        1.0179116178
 H          1.2998818220       -0.1082700248       -0.0670163860
 C          1.9543940325       -0.9113890749        0.2292366618
 C          1.6716785708       -2.2074982459       -0.1771005250
 C          2.5253694895       -3.2320823612        0.2129197198
 C          3.6288624520       -2.9611914674        1.0033181053
 C          3.8920556822       -1.6717085012        1.4296390939
 C          3.0434975818       -0.6403295557        1.0422140990
 N          3.2805838390        0.6834175870        1.4350483774
 S          2.0027932369        1.7431845986        1.6445018204
 O          2.5527360657        2.8003856175        2.4706486130
 O          0.8351651376        1.0817989026        2.1833730234
 C          1.6716308086        2.4106426940        0.0284271362
 C          0.4617564729        3.0453461416       -0.1630091516
 C          0.1904251124        3.6181321942       -1.3945474705
 C          1.1285666382        3.5417519727       -2.4109231401
 C          2.3392596870        2.9010462665       -2.2025177374
 C          2.6204526810        2.3336808987       -0.9702896180
 H          3.5506320280        1.8235520249       -0.7814008745
 H          3.0647373935        2.8362649530       -2.9975918714
 H          0.9108269853        3.9787673395       -3.3727556591
 H         -0.7538346524        4.1130202740       -1.5583628216
 H         -0.2478327174        3.0628330607        0.6495460420
 H          4.0128116001        0.8181744530        2.1160266438
 H          4.7414842102       -1.4634298740        2.0620132549
 H          4.2836184288       -3.7649588070        1.3040453028
 H          2.3078441749       -4.2464365105       -0.0878004975
 C          0.4420746979       -2.4751305970       -1.0058632497
 H          0.2236708762       -3.5530547446       -0.9331309003
 C          0.6354541284       -2.1488027156       -2.4797068515
 C          1.7146197472       -1.2480003928       -2.9917813537
 C          1.8029748057       -2.7242743760       -3.2261247771
 H          1.6419068387       -3.1035726532       -4.2238094689
 H          2.5329186986       -3.2774434911       -2.6544893621
 H          1.4694060797       -0.5996517848       -3.8184392128
 H          2.3859574120       -0.8008941191       -2.2759402910
 H         -0.3111749964       -2.1123182385       -3.0088683493
 O         -0.5608452606        0.2738731387       -1.5396928326
