  62
        -98.94345977
 C          1.8547987133        0.7911520973       -0.7087369367
 C          2.1235320216        0.0852143802        0.4886887666
 C          3.5377162236        0.0192664493        0.8857867217
 C          4.4658328885        0.6302078757        0.1267932380
 C          5.9432871705        0.6010690059        0.3891935465
 C          6.6131582924       -0.5767273134       -0.3322709208
 C          5.9098674891       -1.9159090402       -0.1117388653
 H          4.9219298419       -1.8798306576       -0.5763583965
 H          6.4867148318       -2.6770524293       -0.6415745084
 C          5.7617874235       -2.3195382199        1.3619189926
 H          6.0347131596       -3.3718485736        1.4656246819
 H          6.4556914383       -1.7436605370        1.9753312774
 C          4.3458065319       -2.1690269904        1.9211865706
 H          3.6351687628       -2.6668685476        1.2569540179
 H          4.3057627118       -2.6805554329        2.8865137472
 C          3.8667726053       -0.7293270248        2.1467185526
 H          4.6056227459       -0.1839870735        2.7375133375
 H          2.9346688397       -0.7739620995        2.7176503554
 H          6.6212864722       -0.3664617100       -1.4043014629
 H          7.6480278418       -0.6461278503        0.0078855171
 H          6.3759585429        1.5335657530        0.0227078832
 H          6.1151311373        0.5292549437        1.4614144909
 O          4.1648303728        1.3160746334       -1.0061479615
 C          2.8574483998        1.4091113739       -1.4547727600
 O          2.7184589042        2.0647384514       -2.5078155276
 O          1.2319024735       -0.4590689160        1.1897364863
 C          0.4264015806        0.9060399808       -1.2080117715
 C         -0.4460674400        1.5529415976       -0.1596011580
 C          0.0172047967        2.6885268245        0.5003786309
 C         -0.7518436021        3.3075814112        1.4657138480
 C         -2.0070017951        2.8183860411        1.7829169752
 C         -2.4853820921        1.6947609555        1.1213193997
 C         -1.7053107153        1.0690908768        0.1575951796
 H         -2.0954167934        0.2010414203       -0.3461457221
 N         -3.7434637298        1.1636548304        1.4346706433
 S         -4.7083852923        0.4863801573        0.2518903484
 O         -4.5788956368        1.1802249790       -1.0082608337
 O         -6.0349246197        0.4743694546        0.8319784698
 C         -4.1361686631       -1.1920473636        0.0920460823
 C         -4.1817772626       -1.7930948603       -1.1503966220
 C         -3.7751958641       -3.1125460256       -1.2736436781
 C         -3.3325255192       -3.8046905981       -0.1571877930
 C         -3.2961613078       -3.1875803591        1.0839600249
 C         -3.7050147531       -1.8700603599        1.2147744344
 H         -3.6826448292       -1.3607452126        2.1635874332
 H         -2.9472097707       -3.7274211988        1.9495580394
 H         -3.0123975225       -4.8300437879       -0.2554524922
 H         -3.8030653701       -3.5940777331       -2.2384079754
 H         -4.5222550220       -1.2136928741       -1.9940657995
 H         -4.2790475183        1.6879950185        2.1103796395
 H         -2.6090564185        3.3006027086        2.5380028466
 H         -0.3744463918        4.1825320478        1.9736309797
 H          0.9957226822        3.0757472593        0.2493596086
 H          0.4595588784        1.5766434098       -2.0797952737
 C         -0.0740915331       -0.4516695887       -1.6566205934
 C         -1.1011047121       -0.5616205707       -2.7418346000
 C          0.3194565896       -0.9546926441       -3.0117740696
 H          0.5515034028       -2.0027202972       -3.1263910439
 H          0.9257828214       -0.3031178445       -3.6245154462
 H         -1.8426542788       -1.3426190710       -2.6682285105
 H         -1.4706834784        0.3549252996       -3.1770703255
 H         -0.1087813081       -1.1698670679       -0.8451295169
