  62
        -98.93091103
 C         -2.4718533604       -1.2365146953       -0.0953956252
 C         -2.4017405070        0.0563370963       -0.6703672472
 C         -3.6951251660        0.7300318673       -0.8822155593
 C         -4.8368974465        0.0945984661       -0.5655277072
 C         -6.2129758046        0.6803856660       -0.6910031339
 C         -6.6401583814        1.3779806079        0.6079136447
 C         -5.5934371434        2.3446004236        1.1619198169
 H         -4.7137611659        1.7770903193        1.4744576834
 H         -6.0159229297        2.8024935089        2.0589084082
 C         -5.1628110751        3.4439089995        0.1808869164
 H         -5.1380597852        4.3973766052        0.7125888412
 H         -5.8995372986        3.5373751189       -0.6177259247
 C         -3.7756508604        3.2399614968       -0.4316305064
 H         -3.0477834779        3.0498861330        0.3614461039
 H         -3.4831566328        4.1691694116       -0.9279320482
 C         -3.6618832700        2.1140858384       -1.4673340054
 H         -2.6873055802        2.2081677866       -1.9554855003
 H         -4.4385762850        2.2312155892       -2.2258667305
 H         -6.8338554696        0.6133204580        1.3636233890
 H         -7.5717695194        1.9150054598        0.4208377773
 H         -6.9121323960       -0.1296353935       -0.9052397502
 H         -6.2268115718        1.3877332456       -1.5177747719
 O         -4.8639158666       -1.1579358031       -0.0418577309
 C         -3.6910632185       -1.8431233463        0.2166402527
 O         -3.8599138762       -2.9736511994        0.7185940519
 O         -1.3328121378        0.6332587095       -0.9937756534
 C         -1.2256263704       -2.0653651265        0.1997919818
 C         -0.2379160140       -1.2538959481        0.9987395436
 C         -0.4872521367       -1.1447571542        2.3681929622
 C          0.3395140157       -0.4094206117        3.1939590953
 C          1.4614014732        0.2174120706        2.6804660945
 C          1.7151364011        0.1272277200        1.3189256480
 C          0.8625225468       -0.5874567388        0.4864993608
 H          1.0833157113       -0.5824925909       -0.5648425888
 N          2.8343539311        0.7545924834        0.7486307973
 S          3.6518006298       -0.0858170910       -0.4676005578
 O          3.1277715206        0.3066630293       -1.7509775755
 O          3.6383214252       -1.5009532344       -0.1735149814
 C          5.3020739938        0.5630179695       -0.2703827684
 C          5.6371620399        1.7483339561       -0.8972001356
 C          6.9105867805        2.2646894712       -0.7165349910
 C          7.8221493535        1.5921372128        0.0838385652
 C          7.4719226213        0.4028900271        0.7054613993
 C          6.1998770063       -0.1185075685        0.5297768253
 H          5.8863170939       -1.0445439628        0.9843867656
 H          8.1836102464       -0.1195125491        1.3241952428
 H          8.8128575543        1.9956892366        0.2213418333
 H          7.1873770752        3.1872548322       -1.2008081864
 H          4.8985321905        2.2299527252       -1.5168171598
 H          3.4662566180        1.1430945970        1.4348540621
 H          2.1230294566        0.7785473099        3.3229627181
 H          0.1193661767       -0.3373508089        4.2485006599
 H         -1.3543880512       -1.6456685057        2.7780022454
 H         -1.5819734013       -2.8602362994        0.8752778749
 C         -0.7835127042       -2.7995862612       -1.0600536925
 C         -0.1454680896       -2.1809903357       -2.2657512472
 C          0.6284319006       -3.1498936292       -1.4209600983
 H          0.8132240508       -4.1349378502       -1.8248229148
 H          1.4378835083       -2.7738829020       -0.8141410765
 H         -0.4890626547       -2.5099886471       -3.2369755665
 H          0.1078516101       -1.1330544558       -2.2416122930
 H         -1.5228712941       -3.5654157747       -1.2887631199
