  62
        -98.93791284
 C         -2.0216350000       -1.0099883598       -0.1162307804
 C         -2.6883009002       -0.3657221197        0.9586352594
 C         -3.3285706905        0.9274261201        0.6728423590
 C         -3.2464322305        1.4379929697       -0.5673015011
 C         -3.7673618408        2.7557393395       -1.0848260815
 C         -5.1536011709        3.2090520893       -0.6101200917
 C         -6.1658324007        2.0738468791       -0.3979593315
 H         -7.0826065007        2.3094431187       -0.9413818617
 H         -5.7728511204        1.1426054091       -0.8095162512
 C         -6.5304375307        1.8668740594        1.0738536985
 H         -6.6746286110        2.8440042395        1.5397708282
 H         -7.4829587206        1.3345211892        1.1280771186
 C         -5.5176843306        1.0669775599        1.8920372488
 H         -5.5262137403        0.0215430598        1.5724604991
 H         -5.8388921607        1.0856887301        2.9360917888
 C         -4.0647765507        1.5643222802        1.8167224088
 H         -4.0204514310        2.6495906702        1.7674623685
 H         -3.5492487607        1.2365982905        2.7234685289
 H         -5.0546853911        3.7766648995        0.3139134481
 H         -5.5326673310        3.9008821290       -1.3643219820
 H         -3.0313659410        3.5273173097       -0.8384347317
 H         -3.7682484207        2.6525056792       -2.1729378415
 O         -2.6010726803        0.7855945596       -1.5735282809
 C         -1.9656025600       -0.4304539302       -1.3822147205
 O         -1.4144152098       -0.8634522003       -2.4163955304
 H          0.5435509602       -1.4061893596       -1.5212901301
 C          0.9546326702       -1.5655914292       -0.5351269100
 C          0.1375567402       -2.0535172292        0.4752905600
 C          0.6814964902       -2.2246746387        1.7427462701
 C          2.0067726401       -1.9110698983        1.9904510501
 C          2.8107778100       -1.4045578084        0.9844894701
 C          2.2726799101       -1.2239487989       -0.2823902600
 N          3.0727730600       -0.6445590689       -1.2998952101
 S          3.2598868496        1.0215110211       -1.0992909605
 O          2.0921192094        1.6145122110       -0.4838740008
 O          3.6309434996        1.5345254209       -2.4002307906
 C          4.6545624695        1.1413865518        0.0001098795
 C          4.4755064893        1.6006513321        1.2900639694
 C          5.5735801892        1.6712861926        2.1333694095
 C          6.8230649594        1.2833775927        1.6738945597
 C          6.9860164096        0.8259784824        0.3744841298
 C          5.8926968196        0.7529819819       -0.4737195503
 H          5.9720894598        0.4097104017       -1.4916643202
 H          7.9592332097        0.5260655726        0.0209354000
 H          7.6750422293        1.3386041331        2.3329431097
 H          5.4485124591        2.0264991528        3.1436139494
 H          3.4837481292        1.8860824019        1.6028498793
 H          2.6825944701       -0.8023446393       -2.2203375701
 H          3.8403709200       -1.1461163581        1.1712543101
 H          2.4149905801       -2.0520040680        2.9794359302
 H          0.0494614902       -2.5848623687        2.5412829002
 C         -1.3241564897       -2.3222089796        0.2084410800
 H         -1.7788726497       -2.6659601695        1.1471689801
 C         -1.5138690093       -3.3989370199       -0.8402642797
 C         -1.2993777790       -4.8307386898       -0.4536201693
 C         -2.6835765991       -4.3286683502       -0.7320329496
 H         -3.1764770890       -4.6418593005       -1.6400800295
 H         -3.3546468292       -4.1917792201        0.1033761403
 H         -1.0321857791       -5.0362322594        0.5717666507
 H         -0.8387905788       -5.4930733998       -1.1702196691
 H         -1.2144909793       -3.0936179701       -1.8342906898
 O         -2.7392633102       -0.8531120694        2.1188575995
