  62
        -98.93714286
 C         -2.5452387315       -1.2553198163        0.2660413019
 C         -2.7284859234       -0.3305918951       -0.7877997884
 C         -3.8044547837        0.6649558195       -0.6147369789
 C         -4.5386426601        0.6681539433        0.5126746138
 C         -5.7076569939        1.5291320552        0.9434650218
 C         -6.0358629559        2.8285125229        0.2125707544
 C         -4.9885282483        3.9311580712        0.3643466282
 H         -5.2784536174        4.7672660805       -0.2757689489
 H         -5.0025235586        4.2836971251        1.3986938173
 C         -3.5530779734        3.5284557671        0.0355548650
 H         -2.9174390784        4.4053444190        0.1856809218
 H         -3.2157156360        2.7638627425        0.7384691517
 C         -3.3240401246        3.0280335179       -1.3893472423
 H         -2.2443727526        2.9320739277       -1.5343907986
 H         -3.6919394451        3.7678316852       -2.1030677804
 C         -3.9580862908        1.6665337236       -1.7234352723
 H         -5.0040539970        1.7738547811       -1.9999376643
 H         -3.4317752669        1.2528825684       -2.5885924295
 H         -6.2323457248        2.6318439703       -0.8373176963
 H         -6.9694715830        3.1995419685        0.6442022237
 H         -6.5872341174        0.8772104487        0.9004545987
 H         -5.5390399004        1.7476369377        2.0027015397
 O         -4.3251956821       -0.2438129295        1.5052497798
 C         -3.3448659142       -1.2108680561        1.4122669505
 O         -3.2836371910       -1.9692067427        2.4002728197
 H         -0.0137349759       -0.5442863936       -1.1050687875
 C          0.5046626474       -0.9151641087       -0.2330969237
 C         -0.1230737577       -1.8438951060        0.5846459114
 C          0.5550004231       -2.3057923586        1.7066657875
 C          1.8272782048       -1.8467726230        1.9994562819
 C          2.4470901247       -0.9168248937        1.1840926903
 C          1.7774973034       -0.4474962318        0.0616621595
 N          2.3861293306        0.5156969751       -0.7622907720
 S          3.9439778049        0.2179421004       -1.3113877601
 O          4.0794025496        1.0018711799       -2.5196604859
 O          4.2022872591       -1.1984670284       -1.4326177101
 C          4.9862858553        0.9199910614       -0.0493090047
 C          4.7884261250        2.2415644403        0.2998041862
 C          5.6015337118        2.8065028945        1.2692517911
 C          6.5956471463        2.0461039064        1.8671261944
 C          6.7838239783        0.7216219545        1.5032267351
 C          5.9727066863        0.1499768893        0.5351365862
 H          6.0781706936       -0.8773245837        0.2246751368
 H          7.5572506456        0.1322980785        1.9689981735
 H          7.2273202790        2.4886205016        2.6210954697
 H          5.4577014748        3.8360831094        1.5550975855
 H          4.0074905104        2.7986737244       -0.1903886626
 H          1.7926463559        0.8218177293       -1.5203601626
 H          3.4373088686       -0.5548441332        1.4081810696
 H          2.3415168065       -2.2150850717        2.8740199743
 H          0.0729889485       -3.0226368616        2.3555719676
 C         -1.5016419001       -2.3619138970        0.2481845681
 H         -1.7997503141       -3.0553806263        1.0458725156
 C         -1.4780702013       -3.1271365286       -1.0618625451
 C         -0.9318943122       -4.5215485360       -1.0794844426
 C         -2.4030833901       -4.2899518003       -1.2486958283
 H         -2.8443013246       -4.4460432170       -2.2216629874
 H         -3.0570858842       -4.5443704530       -0.4270644577
 H         -0.5889673458       -4.9365596145       -0.1437835634
 H         -0.3573120030       -4.8381108389       -1.9365643222
 H         -1.2879236864       -2.5012978804       -1.9238413620
 O         -2.0436173078       -0.3130665324       -1.8470849781
