  62
        -98.94537204
 C         -2.5593968733       -0.3682040201        0.0794970482
 C         -2.5021716056        0.5925541545        1.1241948818
 C         -2.3594234013        1.9923085208        0.7189164043
 C         -2.3212830526        2.3030372917       -0.5888954947
 C         -2.1408283164        3.6792926537       -1.1678365369
 C         -0.6686778856        4.1073878365       -1.2537652254
 C         -0.0233769726        4.4828228101        0.0811992759
 H          0.9147987958        4.9908877736       -0.1509051283
 H         -0.6610189265        5.1954059945        0.6062600997
 C          0.2807171221        3.2854081874        0.9926898938
 H          0.2745249554        2.3689226331        0.3961111850
 H          1.2890784988        3.3911651650        1.4010551722
 C         -0.6732609900        3.1299721919        2.1781417404
 H         -0.3987687469        2.2222604940        2.7215978972
 H         -0.5548951010        3.9792943283        2.8550959563
 C         -2.1538150545        3.0175623735        1.7927772522
 H         -2.5352068974        3.9862709530        1.4713632033
 H         -2.7133196744        2.6931526077        2.6737086722
 H         -0.0964240923        3.2969917473       -1.7142209785
 H         -0.6169179507        4.9737235351       -1.9178946531
 H         -2.7028509072        4.4070388711       -0.5816545376
 H         -2.5526645108        3.6511613300       -2.1789991840
 O         -2.4539692051        1.3658640324       -1.5608672820
 C         -2.5063070601        0.0127616903       -1.2611896104
 O         -2.5229711180       -0.7137416668       -2.2784130240
 O         -2.5582127150        0.2850014868        2.3447721031
 C         -2.5163531270       -1.8250561951        0.5196427733
 C         -1.0555708037       -2.1983140831        0.6148459638
 C         -0.4620342008       -2.5409630906        1.8236279228
 C          0.9067864557       -2.7329400086        1.9094126715
 C          1.7141432510       -2.5505628388        0.7998937198
 C          1.1256868041       -2.2152722941       -0.4116342430
 C         -0.2473982694       -2.0765764949       -0.5071379011
 H         -0.6865815965       -1.8010178773       -1.4550695109
 N          1.9571145805       -1.8987815330       -1.5245760038
 S          2.2924101440       -0.2388296322       -1.5162210920
 O          1.1267920140        0.5432910322       -1.1662462929
 O          2.8901337766        0.0511259413       -2.8019995526
 C          3.5163318775       -0.1177312942       -0.2325102875
 C          4.8043953952       -0.5331401055       -0.5088165513
 C          5.7535339872       -0.4823245003        0.4994576931
 C          5.3985048514       -0.0230931304        1.7593348615
 C          4.1006459897        0.3897660834        2.0200575818
 C          3.1463867823        0.3416308302        1.0157953976
 H          2.1246901664        0.6495289158        1.1743824255
 H          3.8245566964        0.7453583856        2.9997034342
 H          6.1375929902        0.0140373461        2.5439937372
 H          6.7638867491       -0.8017711095        0.3011152715
 H          5.0326729781       -0.8778061808       -1.5036588068
 H          1.5065530909       -2.1098629550       -2.4062744842
 H          2.7849747992       -2.6563416123        0.8623928891
 H          1.3524149089       -2.9972290587        2.8558849927
 H         -1.0782350920       -2.6229996060        2.7067799441
 H         -2.9365653907       -1.8410557273        1.5342753355
 C         -3.3003184886       -2.7894136892       -0.3426102757
 C         -3.7063048670       -4.1099145830        0.2388035972
 C         -4.7392883329       -3.0562259152       -0.0219933418
 H         -5.4290092971       -3.1959077986       -0.8405606958
 H         -5.1666045519       -2.5392621938        0.8247310474
 H         -3.6864541382       -4.9798040427       -0.3993542954
 H         -3.4352213088       -4.3092521822        1.2643699178
 H         -3.0241443787       -2.7614779395       -1.3882782963
