  62
        -98.93870396
 C          1.8409038999        0.4406092692       -0.5906370310
 C          2.8399639699        1.2997343603       -0.0793207927
 C          4.2303533600        0.8249266303       -0.1856548720
 C          4.4691217400       -0.3682314407       -0.7575602799
 C          5.7959413001       -1.0594505808       -0.9099599788
 C          6.0497802504       -2.0132037686        0.2700203829
 C          6.7168128005       -1.3714522663        1.4861319117
 H          7.7579284904       -1.1454517266        1.2463004211
 H          6.7192538507       -2.1160805448        2.2855184730
 C          6.0466917604       -0.0962408754        2.0041701294
 H          6.3588239105        0.0486237665        3.0402967991
 H          4.9630117504       -0.2263614356        2.0083185698
 C          6.4197694501        1.1539512131        1.1937417970
 H          7.2658138900        0.9202853920        0.5477234773
 H          6.7576986401        1.9382619644        1.8742500255
 C          5.2811154299        1.7552835514        0.3567436061
 H          5.7110920797        2.3191026900       -0.4778631950
 H          4.7243510699        2.4754010925        0.9646533949
 H          6.6867396504       -2.8315491292       -0.0719121556
 H          5.0897850005       -2.4471806282        0.5616953739
 H          6.5992874500       -0.3358264609       -1.0111233202
 H          5.7355861600       -1.6492999825       -1.8269420577
 O          3.4757720901       -1.1615226218       -1.2466454083
 C          2.1446281400       -0.7869361318       -1.1782027487
 O          1.3500529201       -1.6140353728       -1.6638472171
 O          2.5808800598        2.4120991413        0.4550759553
 C          0.3882973499        0.8742851792       -0.5125733016
 C         -0.4276983899       -0.1587834196        0.2229667705
 C          0.0412305604       -0.6377312972        1.4446294813
 C         -0.6556394694       -1.6039563760        2.1417230232
 C         -1.8471042294       -2.1037319171        1.6447742043
 C         -2.3322852296       -1.6233060694        0.4358895735
 C         -1.6286963599       -0.6500436506       -0.2631945284
 H         -2.0254608901       -0.3085405324       -1.2041495390
 N         -3.5378040197       -2.1112281405       -0.0933531455
 S         -4.6424933299       -1.0362387619       -0.7383804073
 O         -5.9078416598       -1.7353468419       -0.6764002558
 O         -4.2247462101       -0.6031474942       -2.0470137882
 C         -4.6433799899        0.3371362102        0.4000019902
 C         -5.0826975997        0.1115363725        1.6901193507
 C         -5.0466043297        1.1530359142        2.6023009487
 C         -4.5715374299        2.3960794936        2.2119169864
 C         -4.1403465301        2.6077697512        0.9118912959
 C         -4.1739973701        1.5689079895       -0.0050310822
 H         -3.8460582203        1.6906360277       -1.0242136924
 H         -3.7754583803        3.5764088107        0.6089896741
 H         -4.5391079799        3.2055296649        2.9240546249
 H         -5.3854612595        0.9934826761        3.6132365591
 H         -5.4565635195       -0.8639188970        1.9556599525
 H         -3.9938618295       -2.8080849996        0.4769682059
 H         -2.3893110492       -2.8668978962        2.1819618258
 H         -0.2714508192       -1.9719394843        3.0811169238
 H          0.9725746104       -0.2486098364        1.8328866504
 H          0.3922619099        1.8001061103        0.0820100967
 C         -0.1333237903        1.1898999966       -1.8983988121
 C         -1.1735029805        2.2502756661       -2.0935642139
 C          0.2381520994        2.4961379254       -2.5318361745
 H          0.4588682592        2.5123684035       -3.5886416546
 H          0.8442010894        3.1737245166       -1.9482755459
 H         -1.9288329306        2.0956834146       -2.8501894735
 H         -1.5216487205        2.7707226776       -1.2143525048
 H         -0.1645061003        0.3171754454       -2.5419774204
