  62
        -98.94342135
 C         -1.8732441799       -0.8375373697        0.7025420100
 C         -2.2151288096       -0.4393406297       -0.6124889601
 C         -3.6502299396       -0.4599590596       -0.9310280904
 C         -4.5278921998       -0.8725502695        0.0017703094
 C         -6.0189173197       -0.8833723994       -0.1688447609
 C         -6.6391916997        0.4355975007        0.3133569290
 C         -5.9488674895        1.6816823506       -0.2416897109
 H         -6.4888646795        2.5503515107        0.1414547089
 H         -4.9328557996        1.7344543806        0.1565137293
 C         -5.8947201992        1.7479340706       -1.7744006809
 H         -6.1707789291        2.7560590706       -2.0907700010
 H         -6.6285099692        1.0628010006       -2.2005181410
 C         -4.5182820091        1.4537582305       -2.3740674106
 H         -4.5395922689        1.7396156804       -3.4290574606
 H         -3.7635939392        2.0733221904       -1.8826952105
 C         -4.0589628892       -0.0081747096       -2.3047137005
 H         -4.8361008092       -0.6584752695       -2.7110940506
 H         -3.1659464591       -0.1053067897       -2.9288392003
 H         -6.5789241900        0.4680247207        1.4038004490
 H         -7.6935786397        0.4454921608        0.0313162888
 H         -6.2592315396       -1.0486041094       -1.2171392609
 H         -6.4275079299       -1.7043346293        0.4226944391
 O         -4.1560511201       -1.2823530695        1.2420756895
 C         -2.8259377701       -1.2586072096        1.6290723798
 O         -2.6233761704       -1.6281689396        2.8040745598
 H          2.0892161402       -0.1002795800        0.2631571908
 C          1.4702372603        0.7472728700        0.5061251906
 C          0.1728853301        0.5589099002        0.9573171503
 C         -0.5883164098        1.6797941102        1.2787662202
 C         -0.0747171597        2.9522754902        1.1249363702
 C          1.2197962704        3.1354974101        0.6716433205
 C          1.9964112504        2.0249764000        0.3684026807
 N          3.3114771505        2.1749303399       -0.0958503191
 S          4.5122439603        1.1535898798        0.4643374412
 O          4.2661896400        0.7374099398        1.8252467412
 O          5.7440059004        1.8800751697        0.2370638114
 C          4.4727361204       -0.2517337202       -0.6275768488
 C          4.2221619807       -0.0546632503       -1.9710534088
 C          4.2402672908       -1.1484135903       -2.8216944688
 C          4.5167680706       -2.4116216003       -2.3207677487
 C          4.7731077003       -2.5916837003       -0.9704438786
 C          4.7511437202       -1.5024156103       -0.1130665587
 H          4.9316280700       -1.5995126802        0.9456937614
 H          4.9880599301       -3.5746040003       -0.5817556686
 H          4.5309328906       -3.2607781503       -2.9857618987
 H          4.0382435310       -1.0127301003       -3.8720433088
 H          4.0083455208        0.9391091898       -2.3272670589
 H          3.6341370806        3.1295304498       -0.1593911190
 H          1.6244415705        4.1293576500        0.5541033106
 H         -0.6835739097        3.8104670002        1.3676403801
 H         -1.5965262899        1.5392392703        1.6451486700
 C         -0.4205899700       -0.8174507598        1.1388163403
 H         -0.4201284002       -1.0454595498        2.2155608003
 C          0.3485308700       -1.9025823599        0.4125260304
 C          1.5040360399       -2.5899687800        1.0734967507
 C          0.2091921698       -3.3189511998        0.8806342605
 H          0.1643745299       -4.1047813699        0.1419230005
 H         -0.4166350904       -3.4941074798        1.7439259703
 H          2.3470861500       -2.8762621500        0.4629709509
 H          1.7699403297       -2.2756006499        2.0719070207
 H          0.3984121803       -1.7293933499       -0.6564830595
 O         -1.3695260994       -0.0812037298       -1.4723865899
