  62
        -98.94666152
 C         -2.0015021285       -1.4428282629       -0.0756220887
 C         -1.7352447942       -0.1840660437       -0.6639023478
 C         -2.9019402594        0.6834405399       -0.8649813758
 C         -4.1298318174        0.2395826422       -0.5402295432
 C         -5.4188785630        0.9950802307       -0.7188036911
 C         -5.7405574539        1.9642782017        0.4272378105
 C         -4.8705283333        3.2208167448        0.4808087409
 H         -4.8768802089        3.7074323645       -0.4949611384
 H         -5.3412424835        3.9056211419        1.1889937975
 C         -3.4230353479        2.9684862272        0.9252177739
 H         -3.1369217698        3.7109326931        1.6734644124
 H         -3.3557535982        1.9894549364        1.4051349811
 C         -2.3903657486        3.0381629364       -0.2000125882
 H         -2.3449127924        4.0562846200       -0.5930716020
 H         -1.4132778137        2.7907658047        0.2232508453
 C         -2.6603952162        2.0758023675       -1.3641618555
 H         -1.7753416870        2.0492042968       -2.0048672541
 H         -3.5079685082        2.4245149180       -1.9536437119
 H         -6.7817144495        2.2732405373        0.3089543260
 H         -5.6601680900        1.4246427427        1.3737528105
 H         -5.3953324709        1.5405506979       -1.6626850992
 H         -6.2129819216        0.2469858115       -0.7695687353
 O         -4.3474176644       -0.9958233598       -0.0141659221
 C         -3.2921839410       -1.8522835870        0.2581147028
 O         -3.6270847730       -2.9307035259        0.7888873843
 O         -0.5860880483        0.1989014896       -1.0029113555
 C         -0.8549235424       -2.3971555060        0.2058489915
 C          0.1932899258       -1.7018102629        1.0399739934
 C         -0.1975246851       -1.0907210484        2.2296886972
 C          0.7218440451       -0.4357398386        3.0249134391
 C          2.0519312531       -0.3684331953        2.6465143625
 C          2.4541704814       -0.9799388781        1.4662216410
 C          1.5295548933       -1.6529716224        0.6771204269
 H          1.8727168947       -2.1131566159       -0.2336898706
 N          3.8040937388       -0.9523046354        1.0685512776
 S          4.2289063195       -0.3567461010       -0.4380711790
 O          3.5848047719       -1.1250286929       -1.4705366736
 O          5.6760286747       -0.3728456087       -0.4384219958
 C          3.6615911053        1.3350656813       -0.4440637529
 C          4.5802107657        2.3334219875       -0.1794483823
 C          4.1505450121        3.6492539592       -0.1333720978
 C          2.8118424367        3.9436743165       -0.3451095950
 C          1.9038907659        2.9293818538       -0.6044343056
 C          2.3250417504        1.6089268397       -0.6541124487
 H          1.6245679269        0.8130683255       -0.8523118409
 H          0.8607506871        3.1475976814       -0.7705547115
 H          2.4735842469        4.9673515930       -0.3088869784
 H          4.8571125274        4.4384693831        0.0675894623
 H          5.6113675507        2.0576623360       -0.0274719423
 H          4.4228755731       -0.5590514885        1.7641601364
 H          2.7721839911        0.1489944494        3.2621818003
 H          0.4013603286        0.0332776950        3.9429791667
 H         -1.2391762137       -1.1360907741        2.5189745545
 H         -1.2788629729       -3.2194837431        0.8007712064
 C         -0.3189929499       -2.9653253180       -1.0915885624
 C          0.3323862329       -4.3143601366       -1.1091156006
 C         -1.0230135914       -4.1280289587       -1.7207361381
 H         -1.1133337184       -4.1560703138       -2.7963475423
 H         -1.8810154604       -4.5279441489       -1.1996852805
 H          1.1768642580       -4.4683496650       -1.7642044142
 H          0.3969588930       -4.8504125626       -0.1741570892
 H          0.0749229356       -2.2035253301       -1.7555384979
