  62
        -98.94891977
 C          1.3369697144        1.5143042266        0.2030836977
 C          0.6682739657        2.4641554578       -0.6026014120
 C         -0.6939779331        2.8174477210       -0.1830187706
 C         -1.2186029532        2.2346346927        0.9102654602
 C         -2.5914092620        2.5091788060        1.4515907616
 C         -3.6321939648        1.5280175281        0.8987018931
 C         -3.5915544068        1.3648802874       -0.6207624568
 H         -2.6639973683        0.8642885151       -0.9115433876
 H         -4.4082666086        0.6930096391       -0.8968206357
 C         -3.7320828647        2.6763648973       -1.4064826573
 H         -4.4179531160        2.5088251285       -2.2398056764
 H         -4.1741440323        3.4450942986       -0.7708934471
 C         -2.4271876342        3.2017998641       -2.0081826689
 H         -1.9219720466        2.3899146828       -2.5391345991
 H         -2.6775022033        3.9700774144       -2.7452149090
 C         -1.4350771817        3.8236839923       -1.0166493903
 H         -1.9514903494        4.5497256838       -0.3848431300
 H         -0.6724473612        4.3530649203       -1.5957388313
 H         -3.4559679065        0.5496053679        1.3492775334
 H         -4.6231698237        1.8734663205        1.1999866841
 H         -2.5543581810        2.4072480364        2.5376855916
 H         -2.8714612500        3.5310628465        1.2021518714
 O         -0.5533164745        1.3110212415        1.6498365699
 C          0.7312811643        0.9145173985        1.3072932587
 O          1.2166974331        0.0446686277        2.0535934085
 O          1.1915899258        2.9998110061       -1.6186675228
 C          2.7347771930        1.0687402233       -0.1824330836
 C          2.7653683794       -0.4216801669       -0.4195776630
 C          3.8657844379       -1.2162151192       -0.1200602038
 C          3.8240686346       -2.5817361692       -0.3441088032
 C          2.6850197427       -3.1867261969       -0.8440110717
 C          1.5799531241       -2.3984460045       -1.1500494008
 C          1.6424640574       -1.0269352346       -0.9662391915
 H          0.7844477085       -0.4257546628       -1.2242489008
 N          0.3990830323       -2.9762058121       -1.6422266593
 S         -1.1201416860       -2.3633761885       -1.3564666179
 O         -2.0079786189       -3.3537589368       -1.9293819565
 O         -1.2443997936       -1.0330405185       -1.9010928683
 C         -1.4257230140       -2.3118284571        0.4054582724
 C         -2.7391773831       -2.0634893840        0.7572409537
 C         -3.0845113215       -2.0128850326        2.0971509641
 C         -2.1102112809       -2.2060547844        3.0649407931
 C         -0.7997257518       -2.4588411875        2.6975444218
 C         -0.4489186834       -2.5177484989        1.3566424814
 H          0.5748788959       -2.6947682913        1.0718403304
 H         -0.0354720013       -2.5964916489        3.4448620310
 H         -2.3737958196       -2.1566932733        4.1097235134
 H         -4.1071957807       -1.8211562202        2.3818291451
 H         -3.4614977436       -1.9150912127       -0.0299944355
 H          0.3877939700       -3.9848070121       -1.6707682888
 H          2.6443886001       -4.2549425969       -0.9920843212
 H          4.6855072335       -3.1878356311       -0.1085775239
 H          4.7532562194       -0.7671060511        0.2947828850
 H          2.9542178631        1.5758370724       -1.1345798841
 C          3.7422455451        1.5214890615        0.8556816351
 C          5.1342692256        1.9043428082        0.4527315734
 C          4.1601357884        2.9602641405        0.8779854540
 H          4.3012719505        3.4423919006        1.8335849137
 H          3.7416148190        3.6072322011        0.1206530042
 H          5.9486756757        1.6638532366        1.1195213226
 H          5.3874251443        1.8451596971       -0.5951934868
 H          3.6015554851        1.0263949922        1.8099497655
