  62
        -98.94576836
 C         -2.3087703627       -0.9718025412        0.2768230959
 C         -2.1323491690       -0.0803695103       -0.8092536573
 C         -2.6075614467        1.2940104165       -0.5910799428
 C         -3.1245113162        1.6320343739        0.6042749957
 C         -3.5771108166        3.0116667235        0.9838949449
 C         -2.4309261333        3.8216532749        1.6066262248
 C         -1.1390268836        3.7982819138        0.7888338203
 H         -0.4171162599        4.4321329904        1.3085569065
 H         -0.7341241059        2.7833332653        0.7870686350
 C         -1.2996780757        4.2797091393       -0.6598734535
 H         -2.2291263735        4.8410218925       -0.7616519118
 H         -0.4833656622        4.9647658835       -0.8969326897
 C         -1.2653493139        3.1611886134       -1.7025273892
 H         -1.1670802884        3.6194534508       -2.6898166067
 H         -0.3865115624        2.5327982096       -1.5404007679
 C         -2.4998497411        2.2529249525       -1.7434424123
 H         -2.4231231380        1.6321099589       -2.6406959535
 H         -3.4041389116        2.8601374945       -1.8213409001
 H         -2.7664743083        4.8529844223        1.7303658193
 H         -2.2177889440        3.4139451895        2.5977412060
 H         -4.3835164189        2.9208082911        1.7136125601
 H         -3.9567772281        3.5200222567        0.0997399889
 O         -3.2445881833        0.7556953983        1.6353461106
 C         -2.8470483407       -0.5641632040        1.4966976320
 O         -3.0118998297       -1.2618041146        2.5193380128
 O         -1.6097555995       -0.4112823475       -1.9041844322
 C         -1.8796885384       -2.4225041179        0.1441937215
 C         -0.3905198879       -2.4987232499       -0.0939436338
 C          0.1879596442       -3.2217155763       -1.1279109771
 C          1.5645162764       -3.2513655441       -1.2751825743
 C          2.3901301695       -2.5735845045       -0.3977940733
 C          1.8218210524       -1.8444325466        0.6402130355
 C          0.4424629404       -1.8122129269        0.7818790619
 H         -0.0020898812       -1.2501235974        1.5946246297
 N          2.6395813179       -1.1710612363        1.5630778367
 S          3.9574641804       -0.2719700517        1.0675070062
 O          4.9557139745       -1.1521339100        0.5147698473
 O          4.3459825034        0.4830494945        2.2365806567
 C          3.3545691332        0.8340542797       -0.1931165752
 C          2.8048771960        2.0370792029        0.2043171966
 C          2.3175512083        2.9033841624       -0.7598182439
 C          2.3748908104        2.5473143882       -2.0989953619
 C          2.9223224158        1.3329226986       -2.4812780955
 C          3.4207687755        0.4660004546       -1.5216519765
 H          3.8676510763       -0.4783511718       -1.7837463990
 H          2.9624564549        1.0577024015       -3.5227873940
 H          1.9906696950        3.2213975997       -2.8481856843
 H          1.8916547834        3.8486805639       -0.4646738704
 H          2.7867601621        2.2802104647        1.2547607611
 H          2.1271122581       -0.6827905116        2.2821687978
 H          3.4632819728       -2.6060108393       -0.4917367423
 H          2.0019974742       -3.8174816537       -2.0834409392
 H         -0.4368707694       -3.7605954075       -1.8204076617
 H         -2.0865874993       -2.8894927950        1.1184860773
 C         -2.7054273012       -3.1221388324       -0.9144716726
 C         -2.9352077985       -4.6003802945       -0.8327884462
 C         -4.0572529650       -3.6502262843       -0.5433311333
 H         -4.8598101901       -3.5634244276       -1.2602848738
 H         -4.3744219714       -3.5268062646        0.4823367017
 H         -2.9714270469       -5.1693638054       -1.7494778899
 H         -2.4936146047       -5.1300929620       -0.0021628970
 H         -2.5975747916       -2.6720181621       -1.8941918908
