  62
        -98.93195784
 C         -1.5922200596       -0.3486358199        0.3991475204
 C         -2.7743365295       -1.0210108402        0.0102308206
 C         -3.8978211995       -0.1682889605       -0.4327791098
 C         -3.7492540097        1.1679189995       -0.4718130702
 C         -4.6900057198        2.2654863892       -0.9242251007
 C         -6.1790235398        1.9903198590       -1.1171776807
 C         -6.9426779498        1.6736327993        0.1679227293
 H         -6.9844227100        2.5782567295        0.7799228990
 H         -7.9671978598        1.4068119791       -0.1007055807
 C         -6.3494435998        0.5614985497        1.0292952398
 H         -5.3665753398        0.8654600599        1.3952644897
 H         -6.9935921998        0.4369808099        1.9041225897
 C         -6.2254012695       -0.7993027905        0.3464822102
 H         -5.9513535595       -1.5280477102        1.1141874105
 H         -7.1935254595       -1.0946131308       -0.0627134598
 C         -5.1718088194       -0.8878008308       -0.7716126897
 H         -4.9042244793       -1.9408046608       -0.8992672493
 H         -5.5703033894       -0.5355784011       -1.7201286898
 H         -6.3258040296        1.2026381287       -1.8502429305
 H         -6.6108009498        2.9011931788       -1.5409440011
 H         -4.5678871600        3.0770346495       -0.1999113009
 H         -4.2811425998        2.6344555690       -1.8713969208
 O         -2.5766758198        1.7695325498       -0.1128346803
 C         -1.4887809698        1.0424277100        0.3308509600
 O         -0.5004751899        1.7373975503        0.6390969098
 H          2.2441926604       -0.4129133194        0.5821740708
 C          1.8755451105       -0.9824354697       -0.2557876991
 C          0.5555956206       -1.4067381699       -0.2636504890
 C          0.0881179208       -2.1335182703       -1.3543743788
 C          0.9367313309       -2.4366295506       -2.4031323286
 C          2.2569905208       -2.0220673804       -2.3872789487
 C          2.7305469307       -1.2845790500       -1.3071487489
 N          4.0473193006       -0.8255000998       -1.2900683889
 S          4.8153746104       -0.1964802793        0.0420227609
 O          6.1934172704       -0.0713521793       -0.3802730290
 O          4.5867648204       -0.9993889289        1.2203615312
 C          4.1049843002        1.4234548407        0.2387990403
 C          3.5870037501        1.8055576811        1.4593178101
 C          3.0383527899        3.0709963710        1.5894879197
 C          3.0193791999        3.9286994607        0.5015764694
 C          3.5495359800        3.5326524003       -0.7167914704
 C          4.0987368702        2.2685632403       -0.8527754000
 H          4.5206526203        1.9277570601       -1.7837856298
 H          3.5309815000        4.2038870100       -1.5604550307
 H          2.5847149797        4.9103863106        0.6045182190
 H          2.6203352698        3.3789076013        2.5343533595
 H          3.6145874801        1.1064474413        2.2809153404
 H          4.6574050307       -1.1437879100       -2.0252153988
 H          2.9169546509       -2.2620063506       -3.2066420385
 H          0.5672717810       -3.0058198309       -3.2429578285
 H         -0.9404667692       -2.4608889305       -1.3651446988
 C         -0.3449469595       -1.0613549596        0.8939469208
 H          0.1857549703       -0.3148146793        1.5068609806
 C         -0.6409487695       -2.2508611394        1.7971763812
 C         -0.3238117093       -3.6683048594        1.4380494817
 C          0.4952426406       -2.9610510590        2.4730065615
 H          0.3867859505       -3.2474435587        3.5083678316
 H          1.4983940205       -2.6632738390        2.2017889815
 H         -1.0191458792       -4.4300797594        1.7563386619
 H          0.1292216608       -3.8669948697        0.4798053518
 H         -1.5370359895       -2.0978382693        2.3896815510
 O         -2.9103456493       -2.2710888002        0.0153480310
