  62
        -98.94564632
 C         -1.1050555055       -1.4414525430        0.7560652923
 C         -2.0140624648       -1.4350781908       -0.3289367783
 C         -3.0112029928       -0.3549749348       -0.3203289974
 C         -2.9853600495        0.5612457160        0.6645892249
 C         -3.9148780047        1.7355592126        0.7631836537
 C         -3.3429384651        2.9708776848        0.0542311405
 C         -2.8182510248        2.6937953834       -1.3540432431
 H         -2.4626053991        3.6426959011       -1.7604959339
 H         -1.9549204394        2.0272320736       -1.2888349045
 C         -3.8559138030        2.0916006063       -2.3114856886
 H         -3.7870638826        2.6062464780       -3.2721912234
 H         -4.8610911919        2.2626522253       -1.9240752664
 C         -3.6705678379        0.5996689346       -2.5923853772
 H         -2.6370315159        0.4063437917       -2.8911229921
 H         -4.3107857475        0.3301131037       -3.4367537746
 C         -4.0200621042       -0.3427416140       -1.4340896776
 H         -5.0147584017       -0.1039650416       -1.0520741065
 H         -4.0394452315       -1.3620813975       -1.8307289459
 H         -4.1224574210        3.7336073522        0.0104473925
 H         -2.5165606421        3.3565860217        0.6524239765
 H         -4.8747217204        1.4648357084        0.3269735781
 H         -4.0606066958        1.9690530759        1.8191309608
 O         -2.0764681011        0.5393104714        1.6735347050
 C         -1.1173836270       -0.4574981360        1.7449766733
 O         -0.3457877675       -0.3610592054        2.7204811472
 H          1.3156592599       -0.2974361229        0.2731972952
 C          1.5219448980       -1.0607125901       -0.4639008620
 C          0.9189162482       -2.3064732364       -0.3347989989
 C          1.1929529175       -3.2806098034       -1.2844948091
 C          2.0411313110       -3.0020239857       -2.3429210263
 C          2.6452480950       -1.7642923729       -2.4629748889
 C          2.3856765095       -0.7850327514       -1.5099619492
 N          2.9707655890        0.4881576091       -1.5948057187
 S          3.5379405808        1.2140508164       -0.1951153688
 O          4.5181244498        2.1725310737       -0.6627819269
 O          4.0172728707        0.2321014764        0.7494556054
 C          2.1537930265        2.1104646594        0.4721946167
 C          1.8289435474        1.9650052034        1.8055409757
 C          0.7965166317        2.7243450982        2.3319227822
 C          0.1153031994        3.6157123577        1.5191471809
 C          0.4477177621        3.7450739644        0.1785120801
 C          1.4780099421        2.9876192089       -0.3533795109
 H          1.7703690283        3.0654151131       -1.3874100563
 H         -0.0912807048        4.4352648579       -0.4506361069
 H         -0.6774882014        4.2156828419        1.9387330465
 H          0.5250983102        2.6045311848        3.3682450660
 H          2.3745477799        1.2534868962        2.4050160108
 H          3.6161120256        0.6080885225       -2.3623906380
 H          3.3107846702       -1.5523431257       -3.2861163961
 H          2.2397604532       -3.7636120216       -3.0818053557
 H          0.7355302882       -4.2526777366       -1.2040643691
 C         -0.0183894037       -2.5006416070        0.8329507011
 H          0.5474766067       -2.2911546778        1.7526366916
 C         -0.6095669128       -3.8900120850        0.9289017016
 C          0.1960445781       -5.0029394193        1.5266580289
 C         -0.9693209827       -4.4338586520        2.2774380989
 H         -1.8646312216       -5.0299497758        2.3709224549
 H         -0.7700214934       -3.8084516149        3.1357427126
 H          1.1895560465       -4.7669679888        1.8778013685
 H          0.1006032058       -5.9931648265        1.1075865201
 H         -1.2727241501       -4.1226501545        0.1044664942
 O         -2.0037764922       -2.2870630048       -1.2552621942
