  62
        -98.93987962
 C         -1.5126705314       -1.4785387746        0.0098036254
 C         -1.4627926874       -0.0884277068        0.2643692513
 C         -2.7397917027        0.5514632677        0.6313329106
 C         -3.8473489247       -0.2045648981        0.7231851748
 C         -5.2476151585        0.2599917274        1.0143083461
 C         -6.0115360507        0.5268874197       -0.2939505098
 C         -5.8397910698        1.9335548772       -0.8664603739
 H         -6.3206175387        1.9447126207       -1.8474900345
 H         -6.3735932138        2.6453868813       -0.2331710361
 C         -4.3922070829        2.4072629194       -1.0226728172
 H         -4.3842190317        3.2170574745       -1.7549236875
 H         -3.7823921791        1.5980779603       -1.4285003829
 C         -3.7790188012        2.9175313788        0.2898701878
 H         -4.5740619042        3.0537433786        1.0228104223
 H         -3.3404596860        3.9033656157        0.1232407295
 C         -2.6734326777        2.0325504393        0.8851815810
 H         -1.7025642226        2.3336887967        0.4794476636
 H         -2.6257686871        2.1992287831        1.9662041315
 H         -5.6845664765       -0.2129082707       -1.0293291354
 H         -7.0765316432        0.3618969362       -0.1179316206
 H         -5.7433400745       -0.5546727972        1.5463042433
 H         -5.2380559808        1.1398365652        1.6507394025
 O         -3.8424483024       -1.5484781355        0.4980574314
 C         -2.6878180749       -2.2169088794        0.1332232943
 O         -2.8318069632       -3.4442077373       -0.0419312141
 H          2.2945850634       -1.1681590558       -0.7947644880
 C          2.0702023471       -1.3974236823        0.2325262785
 C          0.8466889496       -1.9406029789        0.5878214355
 C          0.6155460278       -2.2463438525        1.9271518535
 C          1.5795133402       -1.9993897214        2.8845480334
 C          2.7904147140       -1.4296458018        2.5301173721
 C          3.0332925753       -1.1288768999        1.1960086576
 N          4.2547581800       -0.5658565730        0.8021620999
 S          4.3321289421        0.5159524000       -0.4668042906
 O          4.2241147715       -0.1836216854       -1.7231895730
 O          5.5820783482        1.2160684278       -0.2507786795
 C          2.9769618304        1.6581177255       -0.2717868634
 C          2.1397258510        1.9079429556       -1.3379191981
 C          1.1247033154        2.8381659798       -1.1908631004
 C          0.9636174143        3.4962818095        0.0166676457
 C          1.8094146865        3.2303943974        1.0813961477
 C          2.8293526913        2.3055971679        0.9379068045
 H          3.5074444831        2.0853050493        1.7467053139
 H          1.6729581151        3.7377039633        2.0232357036
 H          0.1692403135        4.2175787149        0.1312605832
 H          0.4567045575        3.0373787810       -2.0139880503
 H          2.2940859264        1.3671220061       -2.2585641023
 H          4.8720225835       -0.3060329717        1.5568061470
 H          3.5409454138       -1.2238988218        3.2780121893
 H          1.3849055796       -2.2419985652        3.9184805419
 H         -0.3376754519       -2.6756403706        2.2059673892
 C         -0.2487778709       -2.2042996766       -0.4150521139
 H         -0.4871295006       -3.2776054747       -0.3969497920
 C          0.1211817181       -1.8089058754       -1.8293709589
 C          0.9423717707       -2.7299758883       -2.6789298637
 C         -0.5113150186       -2.5263901481       -2.9818835898
 H         -0.7818919227       -1.9575306783       -3.8588807032
 H         -1.2002760937       -3.3260441480       -2.7508470522
 H          1.2428775336       -3.6722419376       -2.2459438948
 H          1.6771393462       -2.3009991976       -3.3439845210
 H          0.2814722683       -0.7413790003       -1.9339640212
 O         -0.4078485252        0.5902717756        0.1814913926
