  62
        -98.93997611
 C         -2.2468506668       -1.0776025199       -0.4258124762
 C         -3.5482193405       -0.9866257547        0.1300758624
 C         -4.3657125413        0.1496246482       -0.3113912830
 C         -3.8540682640        1.0182213850       -1.2022633352
 C         -4.5482591685        2.2573056108       -1.6875065147
 C         -4.1965049009        3.4672377884       -0.8104857349
 C         -4.3434010052        3.2070032978        0.6888928822
 H         -3.6010463930        2.4659414168        0.9953801323
 H         -4.0981140030        4.1376808779        1.2051784219
 C         -5.7400917806        2.7360163557        1.1182043099
 H         -6.4653361436        2.9709915078        0.3384708962
 H         -6.0349783359        3.2879662704        2.0130732238
 C         -5.8305919531        1.2482382477        1.4625570980
 H         -5.0420905005        0.9885544310        2.1733756765
 H         -6.7892884218        1.0714815479        1.9571362436
 C         -5.7435748991        0.2823051834        0.2741145509
 H         -6.0129469659       -0.7143944772        0.6351529472
 H         -6.4618024955        0.5763477628       -0.4935567573
 H         -3.1589992108        3.7472604194       -1.0085706799
 H         -4.8361022524        4.3024454660       -1.1016914080
 H         -5.6236634910        2.0909516502       -1.6822543372
 H         -4.2239198847        2.4548669194       -2.7105476493
 O         -2.6103305471        0.8893884126       -1.7301186236
 C         -1.7663261052       -0.1455978415       -1.3464041223
 O         -0.6534155932       -0.1186591092       -1.9053724851
 O         -4.0046630440       -1.8187940986        0.9592084213
 C         -1.3527111693       -2.2099209041        0.0549417816
 C         -0.3334158387       -1.6275746942        1.0041588597
 C         -0.7178923690       -1.3752164943        2.3194142888
 C          0.1634260294       -0.8024284299        3.2153621964
 C          1.4438209857       -0.4636804368        2.8147289982
 C          1.8379999428       -0.7100135690        1.5047450003
 C          0.9529233852       -1.2938504355        0.6075385892
 H          1.2717560978       -1.4523453826       -0.4089619090
 N          3.1492263522       -0.4043975801        1.0929560520
 S          3.3734126548        0.3233815372       -0.4180005168
 O          2.5167426154        1.4815352934       -0.5406133757
 O          3.2790089959       -0.6835884980       -1.4427523623
 C          5.0742769970        0.8400819851       -0.2532165257
 C          6.0714009938       -0.1018011529       -0.4228032036
 C          7.3928275285        0.2855667083       -0.2677321844
 C          7.6944928684        1.6009769564        0.0527779931
 C          6.6837133630        2.5357661754        0.2177157943
 C          5.3598415258        2.1540764258        0.0653748484
 H          4.5409388839        2.8470187639        0.1748881171
 H          6.9205781958        3.5584836025        0.4632343683
 H          8.7237971254        1.9002927659        0.1717576016
 H          8.1814140061       -0.4378096290       -0.3980318693
 H          5.7886273888       -1.1090011268       -0.6803846356
 H          3.6508370609        0.1191980199        1.7994043866
 H          2.1345324354       -0.0124522532        3.5112674921
 H         -0.1482253433       -0.6130443782        4.2315276627
 H         -1.7248726392       -1.6257947811        2.6228964354
 H         -2.0138647654       -2.8674056295        0.6371977254
 C         -0.7498912065       -3.0139922653       -1.0754982686
 C         -0.1872481508       -4.3713920118       -0.7811448432
 C         -1.4612585808       -4.2408101780       -1.5590846751
 H         -1.4469757559       -4.4596406256       -2.6162609251
 H         -2.3873556081       -4.5061963597       -1.0702667554
 H          0.7063457126       -4.6800801676       -1.3016707269
 H         -0.2493240450       -4.7251045165        0.2369909476
 H         -0.2468943617       -2.4083329277       -1.8193605277
