  62
        -98.94452925
 C          1.8829388044        0.8723359509        0.4307181710
 C          2.1542984920       -0.3016078116       -0.3132161613
 C          3.4428866985       -0.9514741417       -0.0373868512
 C          4.2617757934       -0.4576086458        0.9077790171
 C          5.5894185879       -1.0306322458        1.3226945153
 C          6.7622163736       -0.5981889782        0.4319046106
 C          6.7934594462       -1.2355308057       -0.9578412853
 H          7.7728794843       -1.0171992837       -1.3881757423
 H          6.7152914251       -2.3189483725       -0.8612224415
 C          5.7084543418       -0.7217785917       -1.9144941834
 H          5.3009327922        0.2169139145       -1.5322827189
 H          6.1545974899       -0.5041839057       -2.8875197468
 C          4.5581533485       -1.7000278132       -2.1524903332
 H          4.9346280921       -2.5926420668       -2.6571786606
 H          3.8319014457       -1.2204728333       -2.8135882735
 C          3.8242291497       -2.1337890445       -0.8768937318
 H          4.4424376425       -2.8241359631       -0.3034141310
 H          2.9047408445       -2.6478847947       -1.1676500420
 H          7.6835226685       -0.8686264832        0.9529596931
 H          6.7434509828        0.4896783802        0.3336904361
 H          5.7777463604       -0.6731369552        2.3374088963
 H          5.5290894915       -2.1192239325        1.3442909437
 O          3.9499671353        0.6492418920        1.6314759603
 C          2.7792929646        1.3475260176        1.3954088692
 O          2.6459136641        2.3671568435        2.1011373648
 O          1.3780822591       -0.8094649296       -1.1676279053
 C          0.6273290141        1.7125137024        0.2517555469
 C         -0.5603343001        1.1160737327        0.9681616641
 C         -1.2355387620        1.8287022156        1.9516251943
 C         -2.3503499302        1.2919859808        2.5728398093
 C         -2.8141934680        0.0359145720        2.2255539969
 C         -2.1398092744       -0.6861654666        1.2497582698
 C         -1.0276252536       -0.1442765379        0.6240643382
 H         -0.5097395794       -0.7101115144       -0.1361357244
 N         -2.6166616521       -1.9602185442        0.8732791626
 S         -4.1857055051       -1.9715284231        0.2802714465
 O         -5.1109298381       -1.9284610624        1.3848902436
 O         -4.2754759577       -3.1334247090       -0.5754895935
 C         -4.3038414787       -0.4675123728       -0.6717786527
 C         -5.0512300012        0.5906962481       -0.1972485158
 C         -5.0636344326        1.7759360836       -0.9149056547
 C         -4.3271391203        1.8833068459       -2.0840277646
 C         -3.5815612352        0.8103627203       -2.5478588933
 C         -3.5651758352       -0.3767533483       -1.8348123363
 H         -2.9971968738       -1.2307802145       -2.1684986582
 H         -3.0085378379        0.8939728907       -3.4575920701
 H         -4.3341834266        2.8087606022       -2.6381456680
 H         -5.6420902306        2.6124528558       -0.5575814315
 H         -5.6063996310        0.4647166147        0.7176858916
 H         -2.0000077658       -2.4268228028        0.2225551045
 H         -3.6859352174       -0.3961580727        2.6900779084
 H         -2.8643934949        1.8579072820        3.3345699090
 H         -0.8750920287        2.8067743179        2.2350463952
 H          0.8512549253        2.6783620500        0.7234238188
 C          0.2825030382        1.9585478662       -1.2058822540
 C         -0.5828605507        3.1286070963       -1.5589779657
 C          0.8739287920        3.1396063679       -1.9116222528
 H          1.1583854147        3.0311508085       -2.9475370774
 H          1.5326676489        3.7821026304       -1.3450909350
 H         -1.3038253754        3.0127859761       -2.3527870748
 H         -0.9138084468        3.7663591444       -0.7536824474
 H          0.1587910972        1.0479483917       -1.7765097801
