  62
        -98.93539073
 C         -2.0365969112        0.6754705300        0.4697425977
 C         -3.1681374609        1.2632066745       -0.1496578147
 C         -4.4429746640        0.5319284162       -0.0522745544
 C         -4.4710345849       -0.6607912729        0.5702547427
 C         -5.6153515724       -1.6110725738        0.8549085239
 C         -6.9551904110       -1.4567297872        0.1399687675
 C         -6.9160636281       -1.7431445282       -1.3608020970
 H         -6.7426449179       -2.8125180164       -1.5057558344
 H         -7.8966220507       -1.5059221025       -1.7793496593
 C         -5.8446708265       -0.9926719562       -2.1480131365
 H         -4.8545874088       -1.2990746357       -1.8037062997
 H         -5.9273522253       -1.2944446900       -3.1957409484
 C         -5.9404142282        0.5308265180       -2.0947855940
 H         -6.9388919779        0.8474830803       -2.4024075558
 H         -5.2251016368        0.9304491421       -2.8186434404
 C         -5.6218660926        1.1678605128       -0.7310277350
 H         -5.3502053278        2.2133742700       -0.9034473642
 H         -6.4911763318        1.1599765456       -0.0777298723
 H         -7.6357766468       -2.1810171145        0.5959306736
 H         -7.3722478571       -0.4719878061        0.3293280669
 H         -5.2214986182       -2.6147385666        0.6650696347
 H         -5.7904471778       -1.5494276698        1.9348910651
 O         -3.3493987044       -1.2037910207        1.1248917231
 C         -2.1133315741       -0.5714004843        1.0898185005
 O         -1.2062981883       -1.2234475211        1.6382061893
 H          1.3432239993        0.2334853775        1.7389603719
 C          1.3412134161       -0.0183908665        0.6900596482
 C          0.3589217072        0.4985782772       -0.1395761967
 C          0.3616057990        0.1344857330       -1.4829999625
 C          1.3143473987       -0.7352805363       -1.9789774436
 C          2.2854644269       -1.2607010943       -1.1451353291
 C          2.2912626653       -0.9032855104        0.1965411966
 N          3.2738053740       -1.4344943317        1.0465271306
 S          4.8553763462       -1.4717444099        0.5118709743
 O          5.0547703707       -2.6034799046       -0.3593433844
 O          5.6630465841       -1.4499056558        1.7113592851
 C          5.0661129790        0.0415597935       -0.4106024768
 C          4.8903676644        1.2384561170        0.2555962434
 C          5.0140056416        2.4234161488       -0.4509118876
 C          5.3089480033        2.3919787292       -1.8055478351
 C          5.4878891710        1.1827838592       -2.4587277847
 C          5.3636627724       -0.0058306871       -1.7570126478
 H          5.4925799270       -0.9675422604       -2.2262459009
 H          5.7197090527        1.1610515123       -3.5113860373
 H          5.4007436673        3.3163422697       -2.3537424789
 H          4.8771695839        3.3656422751        0.0550679537
 H          4.6690051277        1.2279175771        1.3107392452
 H          3.2008973738       -1.1328994496        2.0061865504
 H          3.0249718157       -1.9559400619       -1.5082010847
 H          1.2999629171       -1.0116834669       -3.0223107849
 H         -0.4034264845        0.5355318999       -2.1335753460
 C         -0.7183403905        1.4229581383        0.3655314168
 H         -0.9029477049        2.1843280904       -0.4096362288
 C         -0.3167830396        2.1800648343        1.6224709643
 C         -1.3554242595        2.8356421862        2.4813301945
 C         -0.5756992306        1.6696114242        3.0071337351
 H          0.1698207738        1.8558721360        3.7670675749
 H         -1.0737837532        0.7186158031        3.1119809751
 H         -1.1508346901        3.8169796944        2.8820140733
 H         -2.3908018465        2.6782095070        2.2162366057
 H          0.6061398102        2.7334822351        1.4763342922
 O         -3.1189109801        2.3647078674       -0.7589980617
