  62
        -98.93203872
 C         -1.9432949070       -0.8078009793        0.2243253931
 C         -2.1572443265        0.2522240276        1.1344162693
 C         -2.3233734404        1.5862294571        0.5464464930
 C         -2.2270179509        1.7303585396       -0.7879427917
 C         -2.4123169993        3.0245839143       -1.5252740773
 C         -3.8763674382        3.2268507917       -1.9405919838
 C         -4.8757379866        3.0058023546       -0.8052465634
 H         -5.8723739689        3.2036412751       -1.2053228839
 H         -4.8496049262        1.9547433310       -0.5089220817
 C         -4.6364826360        3.8850838703        0.4299866357
 H         -3.9950487887        4.7268257372        0.1670478312
 H         -5.5932722992        4.2953177090        0.7595286162
 C         -4.0337619550        3.1462110356        1.6262850954
 H         -4.6203274693        2.2483576650        1.8368004043
 H         -4.1064695241        3.7974012686        2.5014286181
 C         -2.5622537046        2.7355044239        1.4850659698
 H         -1.9621390548        3.5999653436        1.1919989785
 H         -2.2135048146        2.3965043255        2.4654981931
 H         -3.9864298981        4.2392470721       -2.3332258709
 H         -4.1077234441        2.5225607530       -2.7427625842
 H         -2.0844609441        3.8453341530       -0.8901052382
 H         -1.7866383304        2.9993109682       -2.4189796858
 O         -1.9972034265        0.6927640481       -1.6304514084
 C         -1.8367714587       -0.5988057328       -1.1510907087
 O         -1.6151150170       -1.4478396216       -2.0334480160
 H          0.4964130408       -0.9079146144        0.8375948723
 C          0.6525215706       -1.8643554928        0.3579553632
 C         -0.4250760987       -2.7403075019        0.2202313367
 C         -0.1760067050       -3.9696024963       -0.3730669323
 C          1.0960570723       -4.2933200390       -0.8219126678
 C          2.1451478380       -3.4042913262       -0.7140069615
 C          1.9102593266       -2.1631808905       -0.1280603723
 N          2.9372306473       -1.2045810727       -0.0696536690
 S          2.6906547803        0.3380783812        0.5290017281
 O          2.5124213808        0.3223642918        1.9667684951
 O          1.6555054826        0.9779494656       -0.2441554809
 C          4.2744646011        1.0536671397        0.1307946364
 C          4.5425078553        1.3448773735       -1.1936011583
 C          5.7785573379        1.8747757024       -1.5269908230
 C          6.7221042805        2.1030352279       -0.5358480425
 C          6.4383948751        1.8081809870        0.7888509080
 C          5.2035639504        1.2770593906        1.1285383038
 H          4.9350943953        1.0371546140        2.1447513914
 H          7.1723657090        1.9891396284        1.5574419163
 H          7.6835402080        2.5154362217       -0.7981276477
 H          6.0011017628        2.1072705141       -2.5559107899
 H          3.7745317010        1.1565213666       -1.9262139656
 H          3.8557208701       -1.5734412000        0.1255797014
 H          3.1273513282       -3.6523004125       -1.0838818139
 H          1.2626629526       -5.2579944250       -1.2771309597
 H         -0.9590651990       -4.6918191303       -0.5124165725
 C         -1.7294724456       -2.2135900854        0.7728590366
 H         -1.5711727528       -2.0665906261        1.8564691227
 C         -3.0383869638       -2.9780274065        0.6418469537
 C         -3.4528935680       -3.7913356157       -0.5433620419
 C         -3.2135483171       -4.4610278826        0.7787094644
 H         -4.0771304956       -4.8081066555        1.3271692610
 H         -2.3426846930       -5.0799471514        0.9154639823
 H         -2.7427441934       -3.9049888192       -1.3459058984
 H         -4.4721953193       -3.6921613335       -0.8878997701
 H         -3.8278149218       -2.3801302186        1.0942253471
 O         -2.2046835545        0.0871693100        2.3864839019
