  62
        -98.94494511
 C         -2.1912447424       -0.9695145511        0.5371195094
 C         -2.3126662702       -0.1670369476       -0.6235005606
 C         -3.0932081059        1.0668530616       -0.4637226387
 C         -3.5921678126        1.3936416872        0.7420558141
 C         -4.3892984019        2.6278300151        1.0670063416
 C         -5.8857459364        2.5063260722        0.7474587276
 C         -6.2388955253        2.5357258531       -0.7401142622
 H         -7.3207967814        2.6648702855       -0.8092707355
 H         -5.7765818073        3.4072796961       -1.2045583154
 C         -5.8431307969        1.2684617155       -1.5107566818
 H         -5.6532145958        0.4570063359       -0.8045311162
 H         -6.6747980109        0.9534252333       -2.1448055545
 C         -4.6213608760        1.4319100985       -2.4151281003
 H         -4.8453220920        2.1472609079       -3.2095262170
 H         -4.4074000177        0.4668433003       -2.8811780414
 C         -3.3537849362        1.8953247907       -1.6851863834
 H         -3.4349947187        2.9496223122       -1.4205437362
 H         -2.5012011662        1.7695254463       -2.3576401203
 H         -6.3907527969        3.3431331850        1.2353817121
 H         -6.2637983287        1.5837529554        1.1937890208
 H         -4.2788370066        2.7954172613        2.1406818352
 H         -3.9702368407        3.4842779626        0.5376921276
 O         -3.4019196205        0.6227397758        1.8467013755
 C         -2.7127024196       -0.5776804313        1.7690894348
 O         -2.6216857139       -1.1883535968        2.8544883206
 O         -1.7999177886       -0.4621755306       -1.7335936676
 C         -1.4277533815       -2.2810444361        0.4752147399
 C          0.0040837239       -2.0123301521        0.0783477697
 C          0.6580639263       -2.6767885157       -0.9498842853
 C          1.9663818659       -2.3554621440       -1.2695918220
 C          2.6510832991       -1.3790963785       -0.5702031913
 C          2.0086308497       -0.7136333321        0.4661256582
 C          0.6992438831       -1.0369267149        0.7834088484
 H          0.1966252709       -0.5135646113        1.5888131787
 N          2.7015084202        0.2714782508        1.1955373265
 S          3.4033844252        1.5277688275        0.3256540784
 O          3.4892638531        2.6299479846        1.2598285201
 O          2.6948680740        1.7837161722       -0.9070517673
 C          5.0461663539        0.9347035003       -0.0207625538
 C          5.4949978932        0.8720653299       -1.3253541434
 C          6.7805674385        0.4142191483       -1.5699202975
 C          7.5895269306        0.0302046222       -0.5114293813
 C          7.1240788891        0.1013030298        0.7933281374
 C          5.8407232528        0.5593234551        1.0449140484
 H          5.4415252185        0.6342137017        2.0426187151
 H          7.7560587580       -0.1981378642        1.6137776284
 H          8.5887163360       -0.3269562840       -0.7045590431
 H          7.1439254252        0.3583862410       -2.5834718150
 H          4.8272670495        1.1755435830       -2.1159944684
 H          2.1674145512        0.6444184616        1.9677710017
 H          3.6678531049       -1.1236409195       -0.8200556750
 H          2.4598228820       -2.8736214215       -2.0775970186
 H          0.1404495862       -3.4375264218       -1.5103193505
 H         -1.4266838541       -2.6806654174        1.4999522697
 C         -2.1398731504       -3.2622824612       -0.4314791387
 C         -1.9920483694       -4.7365993380       -0.2092177208
 C         -3.2852537843       -4.0550016268        0.1200253633
 H         -4.1410997905       -4.2337579909       -0.5134454074
 H         -3.5369280548       -3.9045676047        1.1601075889
 H         -1.9627826249       -5.3877556208       -1.0696633768
 H         -1.3669199000       -5.0579822073        0.6099643875
 H         -2.2264171263       -2.9009993710       -1.4496081066
