  62
        -98.93892469
 C          1.9791230508        1.5534400127       -0.3012275113
 C          2.8522940637        1.2429943201        0.7749607792
 C          4.0168019443        0.4076907455        0.4623027316
 C          4.1991843830       -0.0070564979       -0.8040970768
 C          5.3016699021       -0.9186999916       -1.2583081156
 C          4.8666682504       -2.3894024302       -1.1927118329
 C          4.2279115795       -2.7866593839        0.1384268047
 H          3.2802709367       -2.2542359941        0.2522861829
 H          3.9901429886       -3.8511563483        0.0792556290
 C          5.1084112275       -2.5258926203        1.3688209662
 H          5.0676646810       -3.4021101207        2.0192358246
 H          6.1467410003       -2.3992028209        1.0602653968
 C          4.6800674483       -1.3237378692        2.2125703481
 H          5.2229341994       -1.3633970951        3.1606571074
 H          3.6138136184       -1.3982000559        2.4417110424
 C          4.9428320789        0.0538506254        1.5914382183
 H          5.9844554013        0.1212251766        1.2711060002
 H          4.7701282759        0.8062013375        2.3664808699
 H          5.7398381661       -3.0168176889       -1.3812380628
 H          4.1393288465       -2.5712717697       -1.9877277979
 H          5.5521414410       -0.6688015950       -2.2906824250
 H          6.1778380941       -0.7595061371       -0.6326355108
 O          3.3602444717        0.3273524738       -1.8145786531
 C          2.2186668722        1.0998505388       -1.5985735521
 O          1.5607735564        1.2988822420       -2.6346462401
 O          2.6598427177        1.6576945030        1.9494845697
 C          0.7535839310        2.3657049569        0.0825350594
 C         -0.2164527152        1.4839507065        0.8300179402
 C         -0.7901619035        1.9125824033        2.0219352992
 C         -1.6600755332        1.0969225546        2.7226558534
 C         -1.9912952143       -0.1535433383        2.2332187212
 C         -1.4275531522       -0.5899415330        1.0402245606
 C         -0.5383708686        0.2214363111        0.3506294634
 H         -0.0988298089       -0.1387536395       -0.5686629776
 N         -1.7634959934       -1.8501381923        0.4933615333
 S         -2.7418214520       -1.7916837567       -0.8676117892
 O         -3.0527444627       -3.1680139212       -1.1828118866
 O         -2.0953528681       -1.0163850390       -1.8924158136
 C         -4.2124753609       -0.9580169831       -0.2940202828
 C         -5.2711281570       -1.7124847368        0.1731887624
 C         -6.3791479405       -1.0632198555        0.6936244397
 C         -6.4041077424        0.3222756549        0.7482013016
 C         -5.3320474883        1.0653364483        0.2781624347
 C         -4.2225601864        0.4219569505       -0.2474015231
 H         -3.3738953707        0.9671638253       -0.6278682167
 H         -5.3512085501        2.1423980534        0.3191390764
 H         -7.2647482542        0.8270828715        1.1576363554
 H         -7.2156547752       -1.6382813337        1.0567044433
 H         -5.2085652988       -2.7867794397        0.1070131741
 H         -2.1790755417       -2.4806792881        1.1663547034
 H         -2.6729432377       -0.7942493128        2.7724845351
 H         -2.0871826793        1.4384526862        3.6527324090
 H         -0.5293677231        2.8863736028        2.4088524960
 H          1.1176928809        3.1185724576        0.8017228984
 C          0.0942338928        3.1239706241       -1.0567052087
 C         -1.0463637133        2.5812214028       -1.8579543596
 C         -1.2834077426        3.6952654109       -0.8854525981
 H         -1.4833587398        4.6818689096       -1.2749022177
 H         -1.8099464906        3.4623645545        0.0281024918
 H         -1.0548499307        2.7979727425       -2.9154008533
 H         -1.4060001537        1.5882197964       -1.6351524463
 H          0.8116517177        3.7278490210       -1.6026087135
