  62
        -98.94152124
 C          2.3774787892        1.2328353651        0.1601398059
 C          3.3115146959        0.5544322350        0.9836739848
 C          4.0934837208       -0.5110867448        0.3431002104
 C          3.8644977819       -0.8054132236       -0.9494152753
 C          4.5478452801       -1.9011240315       -1.7141708264
 C          3.7591323072       -3.2150877319       -1.6261745835
 C          3.3586549650       -3.6008345516       -0.2020320179
 H          2.6399166090       -2.8691701888        0.1757467640
 H          2.8364773375       -4.5585772429       -0.2592191899
 C          4.5334819710       -3.7144161973        0.7798737527
 H          5.4685906098       -3.8117147177        0.2274022312
 H          4.4087306714       -4.6249135110        1.3696538132
 C          4.6481323700       -2.5538519700        1.7700270341
 H          5.3629691610       -2.8390329824        2.5463402408
 H          3.6833618546       -2.3926384230        2.2580059979
 C          5.1206630319       -1.2180897349        1.1823043397
 H          5.3384680220       -0.5471392065        2.0184245220
 H          6.0409345184       -1.3713131528        0.6151248097
 H          2.8479988125       -3.1136095644       -2.2210103807
 H          4.3638664351       -4.0112582522       -2.0640307925
 H          4.6160712008       -1.5989939087       -2.7605699994
 H          5.5523571764       -2.0407909589       -1.3193205810
 O          2.9352172635       -0.1613928032       -1.6987918593
 C          2.1573645138        0.8619294844       -1.1678952803
 O          1.3353396418        1.3353993856       -1.9728843122
 O          3.4792781545        0.8244516210        2.2033801704
 C          1.5466157001        2.3324649617        0.7988367246
 C          0.0878023908        2.1227690542        0.4791855703
 C         -0.6956666301        3.0411508931       -0.2055802134
 C         -2.0217026609        2.7582038619       -0.4840824875
 C         -2.5948874728        1.5652744160       -0.0845313397
 C         -1.8191059908        0.6371919601        0.5980512802
 C         -0.4936550536        0.9257089863        0.8802999372
 H          0.1134356646        0.1981389338        1.4068205531
 N         -2.3933836606       -0.5767238219        1.0182709457
 S         -3.2324166389       -1.4887315644       -0.1166445907
 O         -3.1800337232       -2.8454924029        0.3853182907
 O         -2.7285471730       -1.2796470391       -1.4540992692
 C         -4.9036807313       -0.8883988004        0.0135843342
 C         -5.5044757900       -0.8951407873        1.2573460884
 C         -6.8068171031       -0.4363236179        1.3731864629
 C         -7.4836132423        0.0152498978        0.2498031272
 C         -6.8677900050        0.0116466271       -0.9923534510
 C         -5.5644126043       -0.4446807632       -1.1150218433
 H         -5.0416829819       -0.4594857809       -2.0583140441
 H         -7.3950447713        0.3626731141       -1.8648475108
 H         -8.4970489273        0.3723757025        0.3428073623
 H         -7.2890685984       -0.4318236780        2.3373690662
 H         -4.9447652139       -1.2569297798        2.1035376748
 H         -1.7553336591       -1.1659399405        1.5340905124
 H         -3.6248861138        1.3398316299       -0.3077325256
 H         -2.6172995639        3.4771881876       -1.0256548395
 H         -0.2609142144        3.9657828324       -0.5473433486
 H          1.6794130882        2.1754663608        1.8828397738
 C          2.0360269941        3.7428806399        0.5086160292
 C          3.4832830929        4.0133594802        0.2283378157
 C          2.4652711016        4.1853817297       -0.8568772634
 H          2.2175849160        5.1892277079       -1.1699412147
 H          2.4292647766        3.4590984246       -1.6533145522
 H          3.9335242303        4.8951686280        0.6587941254
 H          4.1496958406        3.1646060802        0.1741973286
 H          1.5213725808        4.4794882552        1.1179989617
