  62
        -98.94024153
 C          2.4462019718        0.9263992371       -0.0221491146
 C          2.6479281727       -0.4473381741        0.2541406499
 C          4.0191124569       -0.8259477394        0.6192798958
 C          4.9757990136        0.1167437501        0.6996759790
 C          6.4129234686       -0.1099448280        1.0838753632
 C          7.3053686291       -0.5659779912       -0.0785644090
 C          7.0847534011       -2.0066601328       -0.5412083314
 H          7.9148756949       -2.2611405427       -1.2031282260
 H          7.1369757586       -2.6752325605        0.3185652489
 C          5.7664558131       -2.2352770678       -1.2938225209
 H          5.3635538071       -1.2750636806       -1.6243457668
 H          5.9574427682       -2.8274169753       -2.1916953216
 C          4.6946999849       -2.9689563812       -0.4873946667
 H          3.7936151120       -3.0423955108       -1.1018200768
 H          5.0336270391       -3.9831003417       -0.2644337919
 C          4.3135708885       -2.2804753585        0.8297785970
 H          3.4036361775       -2.7496944701        1.2119399760
 H          5.1086660858       -2.4066091167        1.5642589471
 H          7.1566421460        0.1140589617       -0.9204578199
 H          8.3426990495       -0.4671756623        0.2493556282
 H          6.7899696059        0.8463693489        1.4525286162
 H          6.4650947527       -0.8396084750        1.8923100783
 O          4.7321481134        1.4320713919        0.4529974623
 C          3.4731450729        1.8651898307        0.0706595904
 O          3.3942544707        3.0922917231       -0.1437390128
 O          1.7349084420       -1.3120825857        0.2035053432
 C          1.0723127722        1.4190980283       -0.4362429343
 C          0.0475380574        1.0708534443        0.6161337820
 C          0.3231709214        1.3647154494        1.9496091890
 C         -0.5946890557        1.0773292038        2.9405986488
 C         -1.8149665690        0.5064739896        2.6233320662
 C         -2.1008043916        0.2110806275        1.2963618560
 C         -1.1722748635        0.4936505593        0.3033866403
 H         -1.4234643721        0.2542188272       -0.7160771764
 N         -3.3200482061       -0.3890443026        0.9429403650
 S         -4.0337958949        0.0392128143       -0.5255576596
 O         -3.4531771534       -0.7515417812       -1.5811416988
 O         -3.9855915683        1.4734979749       -0.7001395797
 C         -5.7114397638       -0.4911570397       -0.2318330025
 C         -6.6550002039        0.4345741234        0.1719369303
 C         -7.9486313223        0.0063705907        0.4256716278
 C         -8.2742959679       -1.3331522279        0.2750018852
 C         -7.3166266105       -2.2505683988       -0.1316439735
 C         -6.0216664832       -1.8290632136       -0.3881202564
 H         -5.2467562357       -2.5033047082       -0.7140440566
 H         -7.5743165263       -3.2906357502       -0.2505196512
 H         -9.2815834532       -1.6639835609        0.4729525012
 H         -8.6961316999        0.7174689954        0.7385306085
 H         -6.3579847787        1.4666404147        0.2672239462
 H         -3.9911205635       -0.3924005969        1.6987952116
 H         -2.5342330276        0.2845395387        3.3970521162
 H         -0.3628241864        1.3074948473        3.9697953548
 H          1.2731721519        1.8200699058        2.1967725874
 H          1.1426525096        2.5162429965       -0.4884571685
 C          0.7231990696        0.8904854440       -1.8119425547
 C         -0.2146441760        1.6521434959       -2.6978564810
 C          1.2472190274        1.5988636536       -3.0232418429
 H          1.5667274780        1.0084268993       -3.8688289913
 H          1.8405275284        2.4868855027       -2.8591921588
 H         -0.9059414158        1.0959213045       -3.3138639807
 H         -0.6207529738        2.5776309277       -2.3172744401
 H          0.6834720072       -0.1929971690       -1.8435129729
