  62
        -98.94283470
 C         -1.1690532979       -1.6887661378        0.2001211485
 C         -1.6083642976       -0.8158017705        1.2204465367
 C         -2.8234905027       -0.0314806766        0.9421716248
 C         -3.4206242352       -0.1622243720       -0.2549465478
 C         -4.6163538392        0.5890300621       -0.7717307392
 C         -4.1730466749        1.8431581213       -1.5448668516
 C         -4.0055934356        3.0992017785       -0.6919340806
 H         -3.5899488037        3.8760235495       -1.3380254354
 H         -4.9877309353        3.4393441820       -0.3549980425
 C         -3.0928827848        2.9437580398        0.5270164779
 H         -2.1924591890        2.3942964510        0.2423741297
 H         -2.7675663668        3.9425605998        0.8268280021
 C         -3.7881041608        2.2691914174        1.7191540724
 H         -4.8626556924        2.2472137050        1.5370696338
 H         -3.6382663519        2.8778934235        2.6136481150
 C         -3.2928549441        0.8577161499        2.0613392133
 H         -2.4327830136        0.9313595214        2.7347360934
 H         -4.0780650895        0.3313333065        2.6153823076
 H         -3.2266000015        1.6166364534       -2.0437711413
 H         -4.9105097117        2.0567683938       -2.3216844354
 H         -5.1303061954       -0.0829250448       -1.4623371146
 H         -5.2936732637        0.8449358402        0.0376792466
 O         -2.9532819537       -1.0011197551       -1.2206528568
 C         -1.8158382799       -1.7672191593       -1.0325637638
 O         -1.4948411125       -2.4629568648       -2.0150820330
 O         -1.0005570461       -0.6864212887        2.3190283465
 C          0.1039589194       -2.4853235756        0.4109247414
 C          1.1815093898       -2.0252955375       -0.5426173790
 C          2.1516644500       -2.8722260938       -1.0650110222
 C          3.1280155975       -2.3767670292       -1.9123522657
 C          3.1744794361       -1.0338066092       -2.2415367990
 C          2.2104007149       -0.1781394575       -1.7211564272
 C          1.2301517333       -0.6812522887       -0.8822207071
 H          0.4720288863       -0.0116570925       -0.5092322970
 N          2.2019498593        1.1900192929       -2.0278797998
 S          1.6843049298        2.2970531645       -0.8864476422
 O          0.2528580031        2.2362754785       -0.7336069793
 O          2.2147651827        3.5597796637       -1.3556553039
 C          2.5211560621        1.8179174658        0.6143211989
 C          3.8899039100        2.0072895751        0.6555844060
 C          4.5932156683        1.6006901537        1.7766214365
 C          3.9199780514        1.0063445133        2.8338601231
 C          2.5469134974        0.8291110696        2.7803751627
 C          1.8366498642        1.2383484060        1.6619701409
 H          0.7681594029        1.1019499414        1.6027482611
 H          2.0127996361        0.3666481407        3.5952484632
 H          4.4667174993        0.6816207190        3.7050816233
 H          5.6608004024        1.7433887535        1.8220352414
 H          4.3744976961        2.4826876692       -0.1817705527
 H          2.9993852457        1.5212778113       -2.5495032219
 H          3.9377193750       -0.6517614798       -2.9017876532
 H          3.8698114091       -3.0470188019       -2.3191949750
 H          2.1376788017       -3.9207074974       -0.8160422844
 H          0.4362846625       -2.2382875987        1.4313971877
 C         -0.1664697120       -3.9737659629        0.3353201307
 C          0.6181176191       -4.9319574245        1.1797471493
 C         -0.8168516350       -4.6494338026        1.5043724069
 H         -1.5536700206       -5.4149738906        1.3132144259
 H         -1.0365955379       -4.0394646575        2.3685696968
 H          0.8665885031       -5.8979414623        0.7665572109
 H          1.3727905650       -4.5218974559        1.8337036535
 H         -0.4680352266       -4.2901523807       -0.6566830600
