  62
        -98.93854644
 C          2.4020651946        1.2407919019       -0.0110077147
 C          3.1775549846        0.4861461032        0.8987542213
 C          3.9380012338       -0.6414202288        0.3349221924
 C          3.8451248507       -0.9058935435       -0.9798261945
 C          4.5596537517       -1.9686905069       -1.7771736757
 C          4.6758218015       -3.3667216597       -1.1555895791
 C          3.4841236838       -3.7898490899       -0.2842165256
 H          2.6534263885       -3.0942948666       -0.4210959295
 H          3.1375343216       -4.7729060000       -0.6088049592
 C          3.8354798535       -3.8837734915        1.2026579308
 H          3.0955013565       -4.5172310441        1.6980524026
 H          4.8055752771       -4.3754052196        1.3018275876
 C          3.8699759552       -2.5540466886        1.9549862650
 H          2.8542994137       -2.1615613677        2.0579473356
 H          4.2402463207       -2.7485631993        2.9643521273
 C          4.7331655960       -1.4528261819        1.3175001750
 H          5.6298520781       -1.8680935096        0.8645800861
 H          5.0305009101       -0.7598841621        2.1092558965
 H          4.7892754959       -4.0699469150       -1.9823138328
 H          5.5877245243       -3.4288772853       -0.5635341501
 H          4.0096695794       -2.0321760925       -2.7193270674
 H          5.5614132805       -1.5981957076       -2.0136799609
 O          3.0616703837       -0.1677787810       -1.8171081566
 C          2.3196024879        0.9116745965       -1.3630688171
 O          1.6475042498        1.4801464614       -2.2437890137
 O          3.2374600687        0.7451949227        2.1313222151
 C          1.5991351405        2.4212256832        0.5052367644
 C          0.1280916467        2.1807406767        0.2700084096
 C         -0.7173538347        3.1041993621       -0.3293715549
 C         -2.0530441993        2.8015030685       -0.5326850717
 C         -2.5754402720        1.5840833448       -0.1377568049
 C         -1.7400731912        0.6548030510        0.4689950437
 C         -0.4041875619        0.9612928672        0.6719766672
 H          0.2473274460        0.2335379215        1.1414240912
 N         -2.2636488657       -0.5818578274        0.8894311868
 S         -3.1289051494       -1.4878760991       -0.2313808931
 O         -3.0111144322       -2.8567070273        0.2234546162
 O         -2.6961617665       -1.2196777503       -1.5833704515
 C         -4.8090499859       -0.9443532004       -0.0029523756
 C         -5.3548923176       -1.0311254771        1.2628969851
 C         -6.6622133400       -0.6150155051        1.4573591925
 C         -7.3981407001       -0.1250328817        0.3885923544
 C         -6.8369318022       -0.0483593340       -0.8769060848
 C         -5.5290072273       -0.4617776095       -1.0781417847
 H         -5.0478516191       -0.4146021664       -2.0422571630
 H         -7.4103855130        0.3324042970       -1.7067059588
 H         -8.4153521900        0.1987020052        0.5425773917
 H         -7.1020265447       -0.6732969040        2.4399234668
 H         -4.7499636906       -1.4209995267        2.0642992850
 H         -1.5857380176       -1.1654137588        1.3587671135
 H         -3.6131298287        1.3433988640       -0.3008768657
 H         -2.6968043724        3.5256455084       -1.0081266574
 H         -0.3289316324        4.0568231456       -0.6493307848
 H          1.7729015612        2.4393937735        1.5916561868
 C          2.1115009049        3.7144670969       -0.0915589966
 C          1.9588334614        5.0031624747        0.6581677397
 C          3.3099969374        4.3696090092        0.5246970208
 H          4.0367796899        4.8308562842       -0.1269391777
 H          3.7427809970        3.8944906804        1.3930181110
 H          1.7598353932        5.9046117981        0.0987088212
 H          1.4750612165        4.9653373083        1.6223373009
 H          2.0314364572        3.7343176424       -1.1726622244
