  62
        -98.94069883
 C          1.7369512847       -0.3586367849       -0.4666508852
 C          2.9244620820       -0.5053997578       -1.2281781189
 C          4.1584085785       -0.7276665904       -0.4669388774
 C          4.1128884554       -0.7697540963        0.8768237255
 C          5.2804954003       -1.0082340023        1.7954832929
 C          6.0965249131        0.2536381373        2.1078841321
 C          6.9623174125        0.7700778094        0.9579522726
 H          7.6391498318        1.5173940657        1.3769114119
 H          7.5761006272       -0.0444765677        0.5721232187
 C          6.1719813132        1.4106533036       -0.1916612853
 H          6.6448122796        2.3527235727       -0.4786474918
 H          5.1626957419        1.6513400153        0.1505686788
 C          6.0753066696        0.5501725890       -1.4515934144
 H          7.0709898643        0.4134697025       -1.8793605981
 H          5.4645310516        1.0830555210       -2.1849660563
 C          5.4463355156       -0.8310796897       -1.2267862655
 H          5.2231074201       -1.2685394185       -2.2030582769
 H          6.1460607552       -1.4821637966       -0.7031456235
 H          6.7517822337        0.0176044203        2.9495189541
 H          5.4119145172        1.0413908740        2.4308227347
 H          5.9343437354       -1.7687813277        1.3677416780
 H          4.8667350238       -1.3904179399        2.7310969263
 O          2.9574141562       -0.6091820845        1.5725378829
 C          1.7470801700       -0.3750989641        0.9291751999
 O          0.7906038626       -0.2077496457        1.7072491377
 O          2.9510730886       -0.4491506402       -2.4865818766
 C          0.4458759873       -0.1022497997       -1.2223991342
 C         -0.2993339058        1.0569748365       -0.6107222287
 C          0.3518190751        2.2830172621       -0.4916397764
 C         -0.2835535684        3.3700617833        0.0737247271
 C         -1.5943961095        3.2678313857        0.5074982928
 C         -2.2571542826        2.0549941350        0.3816893249
 C         -1.6072146321        0.9576349714       -0.1666249370
 H         -2.1335973498        0.0204708813       -0.2268049091
 N         -3.5870535089        1.9070530820        0.8068629435
 S         -4.6638318572        1.1122309096       -0.1988800344
 O         -4.3311455130        1.3100085449       -1.5909231077
 O         -5.9689601558        1.5839766339        0.2140271079
 C         -4.5215489645       -0.6104734972        0.2250452311
 C         -4.4679836680       -1.5500222309       -0.7854400937
 C         -4.4071182611       -2.8935585006       -0.4500735538
 C         -4.4022459473       -3.2716424467        0.8840149208
 C         -4.4562980577       -2.3151805122        1.8866099608
 C         -4.5204005492       -0.9706900083        1.5578072919
 H         -4.5646390939       -0.2012417246        2.3101486183
 H         -4.4483467689       -2.6133933626        2.9225867810
 H         -4.3521623978       -4.3175683970        1.1430980656
 H         -4.3615575954       -3.6382972735       -1.2289338670
 H         -4.4645461159       -1.2105999871       -1.8091294967
 H         -3.9990556761        2.7378117028        1.2065043728
 H         -2.0960881179        4.1181943253        0.9444436657
 H          0.2401646260        4.3094811880        0.1705711511
 H          1.3729076090        2.3671714670       -0.8395398820
 H          0.7773068763        0.2078374615       -2.2285198273
 C         -0.4213662458       -1.3370990081       -1.4163766648
 C          0.1806590111       -2.7090907000       -1.4501687282
 C         -0.6950211410       -2.3037419122       -0.3045633412
 H         -1.6827233617       -2.7352112919       -0.2339360701
 H         -0.2371076149       -2.1042125647        0.6510753863
 H         -0.2031056874       -3.4184540644       -2.1677560935
 H          1.2438111697       -2.7936261897       -1.2777288914
 H         -1.2347729007       -1.1524335786       -2.1125497493
