  62
        -98.94103455
 C          2.3904546906        0.1868825206        0.1766848991
 C          1.5358230204       -0.2606967904       -0.8572785103
 C          1.4280724709       -1.7176116205       -1.0167473195
 C          2.1189686116       -2.5244261797       -0.1918652493
 C          2.1164899423       -4.0245773098       -0.2520072285
 C          1.0460391329       -4.6359108498        0.6605569723
 C         -0.3443287574       -4.0261618605        0.4815941225
 H         -1.0267673369       -4.5775890904        1.1332159931
 H         -0.3364696677       -2.9931930003        0.8378460519
 C         -0.8739787880       -4.0599217415       -0.9587742773
 H         -0.3232001079       -4.7992973316       -1.5421673971
 H         -1.9193402278       -4.3753868120       -0.9360117167
 C         -0.8334038189       -2.7063625919       -1.6703285580
 H         -1.2606232390       -1.9480234517       -1.0096358582
 H         -1.4672748292       -2.7668923826       -2.5593062077
 C          0.5520097507       -2.2293159915       -2.1257931588
 H          1.0542075608       -3.0291764616       -2.6748319886
 H          0.4073789201       -1.3841228119       -2.8049523192
 H          1.0024468733       -5.7097201399        0.4658022629
 H          1.3502456033       -4.4908743791        1.6998877921
 H          1.9501417020       -4.3370927504       -1.2814170583
 H          3.0978189926       -4.3780740092        0.0708098413
 O          2.9070281118       -2.0579297989        0.8116420601
 C          3.0492007713       -0.6982132087        1.0278097093
 O          3.7890362316       -0.4025908978        1.9909079288
 H          0.5777262909        0.9547284407        1.8349939294
 C          0.3128550003        1.8109901602        1.2307492791
 C          1.2667493797        2.3711306802        0.3818904084
 C          0.8840761189        3.4764433696       -0.3673752521
 C         -0.4057547213        3.9777899991       -0.2854929318
 C         -1.3577726107        3.3789584791        0.5156381289
 C         -0.9894790199        2.2730555297        1.2728432393
 N         -1.9215691093        1.5785528297        2.0755095201
 S         -2.2855579888        0.0173883392        1.5785475511
 O         -3.2572232081       -0.4686644807        2.5353074418
 O         -1.0747290785       -0.7501790503        1.4526603610
 C         -3.0818476495        0.2317427580       -0.0044620087
 C         -4.4594290995        0.1376119074       -0.0640154481
 C         -5.0975619901        0.3566708564       -1.2736377579
 C         -4.3504051207        0.6748903562       -2.3980089984
 C         -2.9701293007        0.7710872868       -2.3196678090
 C         -2.3223512501        0.5499686478       -1.1131219692
 H         -1.2472090901        0.6138315383       -1.0403752596
 H         -2.3813260312        1.0175629966       -3.1885383194
 H         -4.8454627112        0.8481025254       -3.3405295083
 H         -6.1712210901        0.2802952259       -1.3349670374
 H         -4.9959183790       -0.1143748824        0.8365824223
 H         -2.7859736494        2.0835690094        2.2194391302
 H         -2.3706923909        3.7508773787        0.5517906991
 H         -0.6753545819        4.8377840586       -0.8794652422
 H          1.5683302584        3.9564702895       -1.0422720026
 C          2.6089636900        1.6787222108        0.4142704682
 H          2.9744456704        1.7553404815        1.4530406480
 C          3.7712488695        2.1143277408       -0.4671871825
 C          3.6545218587        2.5684204500       -1.8879346427
 C          4.1290916987        3.5239557608       -0.8315101835
 H          5.1777378286        3.7834341213       -0.8261685640
 H          3.4887317485        4.3272169007       -0.5076830436
 H          2.6649943184        2.6700112893       -2.3025680924
 H          4.3778918585        2.1918195800       -2.5967773428
 H          4.6183833698        1.4653440613       -0.2517042825
 O          0.9039711697        0.5138046089       -1.6218161605
