  62
        -98.93906643
 C          2.5325476494        1.1494500669        0.6301484065
 C          3.3984022870        0.9850650877       -0.4792968784
 C          4.4629577434       -0.0192094975       -0.3146626796
 C          4.5440347048       -0.7244516476        0.8271638440
 C          5.5421154340       -1.8120803124        1.0977795004
 C          4.9951103587       -3.1860200144        0.6862324503
 C          4.3993850365       -3.2174107071       -0.7213386262
 H          3.5046023882       -2.5905714752       -0.7434502205
 H          4.0757168711       -4.2426408408       -0.9141273803
 C          5.3625126769       -2.7675658995       -1.8288896417
 H          5.2859795444       -3.4673121484       -2.6637305476
 H          6.3898651905       -2.8086084126       -1.4651810123
 C          5.0779744705       -1.3727656489       -2.3889045961
 H          4.0232919960       -1.2977801809       -2.6650680940
 H          5.6655721221       -1.2470972103       -3.3021599560
 C          5.4179239680       -0.1993541921       -1.4614398977
 H          5.3529878870        0.7190174968       -2.0521721843
 H          6.4418938384       -0.3027492629       -1.0970501810
 H          4.2143759606       -3.4745969226        1.3941177949
 H          5.8044610892       -3.9150005087        0.7574909930
 H          5.7570184632       -1.8223834792        2.1677384832
 H          6.4605826302       -1.5978715134        0.5547253569
 O          3.6816181256       -0.5539916903        1.8627485447
 C          2.6589147161        0.3739090007        1.7857705597
 O          1.9376633292        0.4266531124        2.8038897420
 O          3.3097133453        1.6330751494       -1.5525576173
 C          1.3837981148        2.1465895667        0.6454684628
 C          0.1555466894        1.4879512599        0.0725740155
 C          0.1324918729        1.0213971671       -1.2390381830
 C         -0.9922671459        0.3890794031       -1.7349334869
 C         -2.1091296214        0.2007107050       -0.9379158293
 C         -2.0857133512        0.6378635763        0.3789562069
 C         -0.9591698684        1.2857645530        0.8715303803
 H         -0.9391535565        1.6140708667        1.9021711785
 N         -3.2096884159        0.4482258120        1.1981693691
 S         -4.0009946526       -1.0313068678        1.1719116531
 O         -4.6637253106       -1.1233025848        2.4543695856
 O         -3.1048214741       -2.1113717813        0.8304101849
 C         -5.2308102478       -0.8249036358       -0.1000592462
 C         -6.0745234214        0.2657490193       -0.0190987617
 C         -7.0424435776        0.4369827353       -0.9956619485
 C         -7.1527145398       -0.4817656226       -2.0289068832
 C         -6.3013540536       -1.5740276613       -2.0935799841
 C         -5.3297351485       -1.7502664407       -1.1204574503
 H         -4.6424515982       -2.5814577047       -1.1334482113
 H         -6.3890145107       -2.2880600815       -2.8966894299
 H         -7.9066846223       -0.3458788254       -2.7881063430
 H         -7.7064344437        1.2850583560       -0.9485471867
 H         -5.9591377245        0.9543843588        0.8010756459
 H         -3.0834817393        0.7734010254        2.1458154727
 H         -2.9844236933       -0.2980794275       -1.3205586628
 H         -1.0012459936        0.0358453346       -2.7550444521
 H          1.0084266142        1.1566950644       -1.8555614134
 H          1.1893458693        2.3366354364        1.7126938559
 C          1.7348629436        3.4811069782        0.0007378370
 C          0.9886505085        4.0677381759       -1.1570212185
 C          0.8289604509        4.6593705639        0.2085396741
 H          1.2691231345        5.6227855791        0.4167849896
 H         -0.1030527767        4.4790870719        0.7236811961
 H          1.5614278635        4.6089355626       -1.8945621820
 H          0.1602815335        3.5137702844       -1.5691000364
 H          2.8000472082        3.6816160970        0.0313846690
