  62
        -98.93736646
 C          2.4053006618        0.2013287833        0.1690393310
 C          3.1100061318       -0.6376723738       -0.7313151126
 C          4.5160598901       -0.2966487690       -0.9793985289
 C          5.0470795336        0.7771061866       -0.3670383854
 C          6.4803254648        1.2077792916       -0.4785980520
 C          7.3369685978        0.5705435470        0.6245095019
 C          7.1408307687       -0.9391186400        0.7644796840
 H          7.8162726028       -1.2832584663        1.5507185088
 H          6.1224643289       -1.1358886806        1.1077375832
 C          7.4045360877       -1.7358564597       -0.5209558592
 H          7.9852627595       -1.1316614038       -1.2187907559
 H          8.0061581134       -2.6126257008       -0.2722863991
 C          6.1435411709       -2.2456310735       -1.2213382413
 H          5.5118035506       -2.7727895571       -0.5018015936
 H          6.4458798887       -2.9698506425       -1.9825318789
 C          5.2903933762       -1.1782711087       -1.9183372552
 H          5.9189353212       -0.5788479061       -2.5799787028
 H          4.5433336996       -1.6951201830       -2.5278098563
 H          8.3862797874        0.7850578389        0.4141492258
 H          7.0781243056        1.0384958751        1.5771129844
 H          6.8629271762        0.9279841646       -1.4581687377
 H          6.5224447854        2.2935103147       -0.3775805762
 O          4.3383881840        1.5724338202        0.4722887294
 C          3.0083872381        1.3059450817        0.7736947665
 O          2.5040812901        2.1236770677        1.5663680190
 H         -1.6230639857       -0.7232439419        0.1111508030
 C         -1.3662671056        0.2371093371       -0.3055546844
 C         -0.0583865989        0.7000969411       -0.2330235612
 C          0.2395427186        1.9330742549       -0.7975276313
 C         -0.7520500243        2.6861593199       -1.4028200197
 C         -2.0563483617        2.2315643886       -1.4514374344
 C         -2.3647077252        0.9916963134       -0.9012877790
 N         -3.6706939461        0.4803269428       -0.9699649892
 S         -4.2442238512       -0.4511594526        0.3176918454
 O         -3.9671838292        0.2114606518        1.5717158558
 O         -3.7419638148       -1.7948419638        0.1797593573
 C         -5.9940748039       -0.4239098628       -0.0243974755
 C         -6.5084880220       -1.3251400503       -0.9373523735
 C         -7.8637059439       -1.2875166860       -1.2244201826
 C         -8.6771624062       -0.3544903526       -0.5985197148
 C         -8.1469065681        0.5424385230        0.3166828789
 C         -6.7921545306        0.5109451561        0.6077679655
 H         -6.3380200949        1.1812662438        1.3198412233
 H         -8.7825484268        1.2639604091        0.8041699978
 H         -9.7317947431       -0.3282129705       -0.8228860259
 H         -8.2802738334       -1.9853460287       -1.9327754929
 H         -5.8398311130       -2.0377264981       -1.3915019279
 H         -4.3481101818        1.1733560969       -1.2578681500
 H         -2.8269763397        2.8259033307       -1.9181505664
 H         -0.5034374221        3.6444676144       -1.8336770375
 H          1.2505944216        2.3087853812       -0.7528893764
 C          0.9670641758       -0.1623979284        0.4695922651
 H          0.8419292885       -1.1874690217        0.0898027852
 C          0.6815107835       -0.1695047111        1.9622543702
 C         -0.2453695237       -1.1820813752        2.5607516274
 C          1.2286978037       -1.2744190274        2.8141385737
 H          1.6064099446       -1.0303023778        3.7954204777
 H          1.7797343762       -2.0589103955        2.3154156547
 H         -0.6925185017       -1.9168526436        1.9075088750
 H         -0.8948512640       -0.8687487613        3.3641038541
 H          0.6786002696        0.8257637082        2.3907364910
 O          2.5845417323       -1.6350114378       -1.2975043843
