  62
        -98.93453198
 C         -2.1947880772       -0.8501337986        0.0533595411
 C         -3.3848196679       -1.0825891449        0.7921238530
 C         -4.3535547427        0.0213857104        0.8494820297
 C         -4.0457045680        1.1898339571        0.2590402090
 C         -4.9506399736        2.3851392542        0.1631854566
 C         -6.0111301932        2.1552458875       -0.9326642166
 C         -7.4458862712        2.0624251493       -0.4126400044
 H         -7.7981795586        3.0656910214       -0.1639481776
 H         -8.0660153956        1.6888447990       -1.2302827078
 C         -7.6545736746        1.1743232702        0.8178116453
 H         -8.7289505041        0.9985152884        0.9037367733
 H         -7.3554570831        1.7160524145        1.7163340447
 C         -6.9340207035       -0.1800016779        0.7985392475
 H         -7.6021090211       -0.9261926834        1.2332933001
 H         -6.7324746857       -0.4934453634       -0.2261132721
 C         -5.6267449115       -0.2218158446        1.6119065970
 H         -5.6927689891        0.4827348989        2.4455746618
 H         -5.5108945118       -1.2231386369        2.0370859556
 H         -5.9630657001        2.9663177011       -1.6609280150
 H         -5.7565854515        1.2381541811       -1.4683883906
 H         -4.3273637924        3.2447726277       -0.0844231017
 H         -5.4258838609        2.5646958183        1.1250342715
 O         -2.8763985252        1.3939392077       -0.3983491223
 C         -1.9228168455        0.3896089627       -0.5279880838
 O         -0.9183868816        0.7430602637       -1.1737200607
 O         -3.6259744114       -2.1705899315        1.3797504649
 C         -1.1931447455       -1.9912025092       -0.0148538150
 C          0.1704391425       -1.5040594018        0.4006337924
 C          0.4630637525       -1.3600295959        1.7534816337
 C          1.6893013349       -0.8694103409        2.1607446981
 C          2.6432277957       -0.4999440972        1.2283689287
 C          2.3513177426       -0.6179617016       -0.1234294970
 C          1.1299307073       -1.1395163106       -0.5297342724
 H          0.9080610798       -1.2178144623       -1.5826067410
 N          3.3043878552       -0.2330522026       -1.0802830943
 S          4.1683043235        1.1863842775       -0.8499576590
 O          3.4351590536        2.1584503595       -0.0731790785
 O          4.5765149469        1.5951497310       -2.1767825358
 C          5.6099205908        0.6479814752        0.0500991470
 C          5.9613964651        1.2742809170        1.2297091486
 C          7.0918525793        0.8440036301        1.9071970330
 C          7.8481615947       -0.1987783894        1.3949422243
 C          7.4841692604       -0.8151841887        0.2069725399
 C          6.3558167440       -0.3891666288       -0.4750851697
 H          6.0409284523       -0.8385961246       -1.4018738138
 H          8.0751367411       -1.6253689497       -0.1888810839
 H          8.7264180882       -0.5326342810        1.9246022969
 H          7.3763914681        1.3231286787        2.8302469188
 H          5.3406129433        2.0783354189        1.5925875613
 H          2.9631131227       -0.2900164014       -2.0291132686
 H          3.5948893047       -0.1005999901        1.5384519037
 H          1.9050676621       -0.7679527511        3.2135653987
 H         -0.2888019483       -1.6285762770        2.4827885006
 H         -1.5465396892       -2.7044606677        0.7469680474
 C         -1.1760099515       -2.7458507784       -1.3360620315
 C         -2.4565409213       -3.0383194680       -2.0579659007
 C         -1.4542843223       -2.1016287784       -2.6596092625
 H         -0.8903330256       -2.4390850873       -3.5174469206
 H         -1.6763080901       -1.0460886097       -2.6754404349
 H         -2.5882742246       -4.0117417441       -2.5055035238
 H         -3.3630143234       -2.6183429534       -1.6467458237
 H         -0.4324311864       -3.5372402780       -1.3325798779
