  62
        -98.94441443
 C          1.9503512708       -1.3521122273       -0.0656204345
 C          2.2337542376       -0.3934252544        0.9370550962
 C          3.6076263003        0.1324145925        0.9558481784
 C          4.5034635611       -0.3089081324        0.0553407411
 C          5.9143633237        0.1859475964       -0.0707967895
 C          6.0063987464        1.3583677709       -1.0574525235
 C          4.9738266614        2.4580625972       -0.8090713819
 H          5.1550243576        3.2460342728       -1.5433649243
 H          3.9748244961        2.0614368310       -1.0056442346
 C          5.0118834002        3.0579058100        0.6035011336
 H          4.9452916340        4.1450572409        0.5236186306
 H          5.9656528972        2.8263334935        1.0791151024
 C          3.8686124787        2.6079418989        1.5150747986
 H          3.8660114715        3.2516433743        2.3989384648
 H          2.9140534098        2.7534548865        1.0023539410
 C          3.9384100555        1.1561391649        2.0056439007
 H          4.9217766604        0.9611222714        2.4378794369
 H          3.1876624620        1.0350326007        2.7919366961
 H          5.8579605645        0.9726852930       -2.0687418161
 H          7.0112503491        1.7806128599       -0.9991002343
 H          6.2761910294        0.4925562076        0.9086825298
 H          6.5343895889       -0.6341731673       -0.4367627647
 O          4.2018250013       -1.2378049928       -0.8858650356
 C          2.9291343158       -1.7715276843       -0.9743700619
 O          2.7917470175       -2.6090536272       -1.8879887824
 H         -0.3790956621        0.3759192530        0.6055315706
 C         -0.7884397002        0.0979538103       -0.3543586676
 C         -0.3807856474       -1.0881867437       -0.9482789390
 C         -0.9078564618       -1.4246096213       -2.1893509082
 C         -1.8184202312       -0.5932397733       -2.8189751758
 C         -2.2225472167        0.5880285798       -2.2234148643
 C         -1.6957512035        0.9346797934       -0.9860862725
 N         -2.1174956847        2.1276895863       -0.3607119627
 S         -3.7664350259        2.2188814152       -0.0655787425
 O         -4.4469978086        2.5783440371       -1.2844150989
 O         -3.9185345479        3.1381476300        1.0397246798
 C         -4.2153945199        0.5615554311        0.4175813424
 C         -4.9020399497       -0.2493096705       -0.4626626829
 C         -5.1664525761       -1.5595913341       -0.0977436747
 C         -4.7372929524       -2.0345949202        1.1315048699
 C         -4.0505995127       -1.2061834665        2.0058125778
 C         -3.7816897791        0.1038587020        1.6458897877
 H         -3.2517137554        0.7760342072        2.3019731921
 H         -3.7187551734       -1.5756416283        2.9630552971
 H         -4.9397298209       -3.0565878161        1.4109649496
 H         -5.7008409679       -2.2064415878       -0.7745152476
 H         -5.2168763667        0.1600712793       -1.4083686675
 H         -1.6048620620        2.3209900802        0.4886230338
 H         -2.9365112148        1.2455722312       -2.6928050374
 H         -2.2183606567       -0.8683541517       -3.7829146692
 H         -0.5904552799       -2.3411253929       -2.6650702526
 C          0.5875908734       -2.0059811690       -0.2413569489
 H          0.7613919341       -2.8728386289       -0.8921970370
 C         -0.0086897197       -2.4994819722        1.0639810592
 C         -1.0764105860       -3.5488369879        1.0200209464
 C          0.2915641656       -3.8913751451        1.5278573148
 H          0.4246386716       -4.0639057196        2.5853462265
 H          0.9317619547       -4.4989647406        0.9045282982
 H         -1.3661235583       -3.9258393835        0.0511147215
 H         -1.8877296296       -3.4858696731        1.7279591997
 H         -0.0870945683       -1.7301276834        1.8201264915
 O          1.4011816443        0.0223286586        1.7883218915
