  62
        -98.93724097
 C         -1.5096308146       -1.5716521780        0.2199007935
 C         -1.7395481155       -0.3880662123        0.9688517912
 C         -3.0291969344        0.2839927106        0.7634253456
 C         -3.9140863905       -0.2383295115       -0.1047063105
 C         -5.3145119209        0.2453448248       -0.3766298002
 C         -5.4562125851        1.6460696846       -1.0011361781
 C         -5.6540560478        2.7739150099        0.0189722800
 H         -6.0728510235        2.3512865605        0.9331683355
 H         -6.3956577170        3.4744602268       -0.3702241024
 C         -4.4032777791        3.5888701363        0.3588584783
 H         -4.6173412730        4.1727506401        1.2566391847
 H         -4.2060636167        4.2936052237       -0.4521170868
 C         -3.1239570234        2.7831074209        0.5855050487
 H         -2.3745821915        3.4584873241        1.0041717785
 H         -2.7372771691        2.4348196936       -0.3754043235
 C         -3.2841190221        1.5613968514        1.5110943033
 H         -4.2767568439        1.5477886125        1.9598535622
 H         -2.5460383436        1.6028898143        2.3151686644
 H         -6.3345465561        1.6144337297       -1.6477956322
 H         -4.5953119923        1.8509911926       -1.6366109850
 H         -5.8808073950        0.2078196930        0.5571406218
 H         -5.7463362052       -0.4923294787       -1.0562337536
 O         -3.6407548294       -1.3526901325       -0.8326569335
 C         -2.4414780717       -2.0390637264       -0.7077808833
 O         -2.3556828032       -3.0213210999       -1.4700025669
 O         -0.9068677441        0.0745756535        1.7947366972
 C         -0.2030860985       -2.2987759969        0.4867695930
 C          0.8709859701       -1.9136733503       -0.5022164842
 C          0.7136179537       -2.1211849280       -1.8686823628
 C          1.7212391365       -1.7685026450       -2.7473785749
 C          2.8929440419       -1.1926895634       -2.2867271443
 C          3.0601075980       -0.9820272502       -0.9234137158
 C          2.0531507365       -1.3532084502       -0.0423281278
 H          2.2012974948       -1.1928673435        1.0145461410
 N          4.2435670464       -0.4156903864       -0.4234722064
 S          4.1808199153        0.7660242326        0.7615181373
 O          5.5085313632        1.3401413082        0.7605017222
 O          3.7397201145        0.1931619411        2.0067214284
 C          3.0095976481        1.9591128410        0.1429613055
 C          1.6714519511        1.8629826034        0.4653551442
 C          0.7847778556        2.7665443999       -0.0996320578
 C          1.2426940149        3.7457547768       -0.9660507635
 C          2.5924198290        3.8331781521       -1.2740613643
 C          3.4832305827        2.9289432188       -0.7210711930
 H          4.5408095234        2.9657738758       -0.9271580831
 H          2.9494789955        4.5991297479       -1.9435270431
 H          0.5445502279        4.4448389211       -1.3990700792
 H         -0.2614999443        2.6847075873        0.1475828729
 H          1.3196224494        1.1038952819        1.1456953812
 H          4.9182892378       -0.1703068306       -1.1337047128
 H          3.6751461468       -0.9139880967       -2.9762963429
 H          1.5904742567       -1.9374721343       -3.8055704403
 H         -0.2040335619       -2.5587217095       -2.2311494758
 H          0.1236175835       -1.9476389785        1.4758107369
 C         -0.3450896814       -3.8076372004        0.5444458260
 C          0.6947818457       -4.6029797754        1.2726357292
 C         -0.6828311495       -4.4651161672        1.8470040379
 H         -1.3373077634       -5.3236892476        1.8355609839
 H         -0.8132168392       -3.8289338647        2.7106414153
 H          0.9897594768       -5.5584428612        0.8669440326
 H          1.4990107471       -4.0602458203        1.7471142121
 H         -0.7701547843       -4.2357773842       -0.3536553823
