  62
        -98.94151499
 C         -2.5670116955       -0.0384706892        0.0976612074
 C         -2.5227382836        1.1096903911        0.9266684365
 C         -2.0811251321        2.3544210745        0.2914348957
 C         -1.7341665131        2.3499853320       -1.0081142439
 C         -1.2382642148        3.5306248912       -1.7973135940
 C          0.2668645216        3.7805544663       -1.6284095821
 C          0.6730518865        4.4042051221       -0.2923028805
 H          1.7006758529        4.7561817920       -0.4021042073
 H          0.0478802859        5.2749865523       -0.0896845494
 C          0.6137581126        3.4356033480        0.8972506374
 H          0.6089788774        2.4056513648        0.5307663663
 H          1.5183380487        3.5427916825        1.5018245287
 C         -0.5771344874        3.6426324457        1.8339105385
 H         -0.5419550029        2.8630756378        2.5999603294
 H         -0.4860029418        4.6107007803        2.3329410367
 C         -1.9489072104        3.5759596358        1.1504888507
 H         -2.1172987623        4.4754582086        0.5583825576
 H         -2.7143065014        3.5186230536        1.9289241952
 H          0.7920869179        2.8302378399       -1.7544529471
 H          0.5808614949        4.4511966319       -2.4318307919
 H         -1.7950313199        4.4255058371       -1.5173029795
 H         -1.4368437330        3.3085447425       -2.8479464136
 O         -1.8080277861        1.2346121240       -1.7779420402
 C         -2.1677964583        0.0076093683       -1.2401718076
 O         -2.1086413051       -0.9331289333       -2.0545183191
 O         -2.8292579717        1.0903965816        2.1511270733
 C         -2.8738983623       -1.3715583028        0.7580222889
 C         -1.7691083765       -2.3482662181        0.4330260000
 C         -1.9715764235       -3.6693574996        0.0614070301
 C         -0.8897351764       -4.4879447159       -0.2224527530
 C          0.4037746798       -4.0055875392       -0.1719743333
 C          0.6160433281       -2.6773538954        0.1882935677
 C         -0.4624155120       -1.8816590214        0.5255021521
 H         -0.2857489465       -0.8618178570        0.8375971597
 N          1.9105908063       -2.1279167797        0.1631554407
 S          2.1731092342       -0.4974302405        0.4427714804
 O          1.9548147277       -0.1632526230        1.8355968225
 O          1.4339046264        0.2659252487       -0.5299661080
 C          3.9157285532       -0.4153213256        0.0783714057
 C          4.3091023511       -0.3822077868       -1.2459335096
 C          5.6620637265       -0.3479479664       -1.5432764523
 C          6.5948698349       -0.3482634605       -0.5165180217
 C          6.1854980912       -0.3784779478        0.8078793112
 C          4.8333100841       -0.4131115429        1.1113610194
 H          4.4671253868       -0.4277708864        2.1252754589
 H          6.9125291444       -0.3747647282        1.6038655170
 H          7.6473006768       -0.3215831618       -0.7507630776
 H          5.9831158573       -0.3209058493       -2.5720657274
 H          3.5466877785       -0.3751488021       -2.0079586660
 H          2.6428186980       -2.7279831374        0.5110627858
 H          1.2418253247       -4.6371851117       -0.4210244157
 H         -1.0611841700       -5.5156216384       -0.5051234146
 H         -2.9734220996       -4.0574917942       -0.0225041879
 H         -2.8155398427       -1.1520641403        1.8390595939
 C         -4.2714215615       -1.9174186104        0.5069103555
 C         -5.3763908891       -1.0289378249        0.0209184509
 C         -4.8250098950       -2.0958726401       -0.8739513446
 H         -5.4375767896       -2.9635153996       -1.0712292151
 H         -4.1976368926       -1.8007218315       -1.6997476809
 H         -6.3627394038       -1.1617895909        0.4398232571
 H         -5.1291415745       -0.0004724279       -0.2004979540
 H         -4.5532743181       -2.6650048030        1.2422747089
