  62
        -98.93843616
 C         -2.5301092900       -1.2128544184        0.2059118557
 C         -2.5194849736       -0.2616790347       -0.8404555538
 C         -3.1580235990        1.0382917913       -0.5596674298
 C         -3.7223981038        1.2616255779        0.6410224759
 C         -4.4608705992        2.4639343038        1.1910309191
 C         -4.3695833347        3.8214721979        0.4989075075
 C         -2.9856750021        4.4700799837        0.5376232871
 H         -3.0131560393        5.3719985634       -0.0776346758
 H         -2.7727282851        4.7745867380        1.5653190339
 C         -1.8272385067        3.5900818823        0.0735388962
 H         -1.7198092268        2.7323814866        0.7414073075
 H         -0.9036900116        4.1695220895        0.1602189636
 C         -1.9172226954        3.0855608804       -1.3652693259
 H         -0.9630620303        2.6002906123       -1.5951406040
 H         -2.0338157415        3.9314488062       -2.0461701559
 C         -3.0407009126        2.0715574728       -1.6426218292
 H         -3.9920932454        2.5709347461       -1.8072499892
 H         -2.7887262178        1.5323660377       -2.5604433469
 H         -5.0582614521        4.4860170004        1.0275768956
 H         -4.7267951239        3.7480636739       -0.5239901510
 H         -4.1234760315        2.5680984206        2.2270389564
 H         -5.5153673671        2.1704136207        1.2377559744
 O         -3.7438681430        0.2988511845        1.6080947910
 C         -3.1345663655       -0.9277694778        1.4333616188
 O         -3.2056697817       -1.6774627675        2.4273018667
 O         -2.0114042327       -0.4607841955       -1.9777669726
 C         -1.8388370673       -2.5673595629        0.1177957402
 C         -0.3580030591       -2.3579081205        0.3263776728
 C          0.2586886343       -2.7389669969        1.5126058120
 C          1.5962483250       -2.4600807548        1.7337895188
 C          2.3409226185       -1.7797223318        0.7861912684
 C          1.7306198494       -1.3901077082       -0.3980115441
 C          0.4008519425       -1.6998850531       -0.6313460891
 H         -0.0678398418       -1.3725800223       -1.5473496212
 N          2.4664883814       -0.6376865089       -1.3446664369
 S          2.7963955179        0.9352913479       -0.8292586155
 O          1.7968936905        1.4071937610        0.1022776251
 O          2.9744421033        1.7145376735       -2.0355674274
 C          4.3660914860        0.7691564481       -0.0058820290
 C          4.4613748523        1.0126505579        1.3499521430
 C          5.6921354736        0.8674568938        1.9713586281
 C          6.7988316113        0.4832081744        1.2296520525
 C          6.6864339441        0.2439821942       -0.1320921737
 C          5.4593230225        0.3881337777       -0.7593218415
 H          5.3269843651        0.2184752630       -1.8147857570
 H          7.5494322394       -0.0540950944       -0.7052748923
 H          7.7547042563        0.3699977829        1.7162718544
 H          5.7810840619        1.0530150379        3.0297322900
 H          3.5717040310        1.3040458138        1.8852943651
 H          1.9922587171       -0.5860501987       -2.2370146462
 H          3.3781100511       -1.5419477233        0.9592587701
 H          2.0603856153       -2.7640296632        2.6596481567
 H         -0.3275762008       -3.2340934928        2.2734250879
 H         -2.2205882101       -3.1505871007        0.9661049966
 C         -2.1436729740       -3.3224390081       -1.1596609801
 C         -1.9182658019       -4.8031542129       -1.1952042399
 C         -3.3137773705       -4.2570002284       -1.1933499885
 H         -3.8960710551       -4.3190534099       -2.1003783038
 H         -3.9001309425       -4.3557503423       -0.2912800802
 H         -1.5398823730       -5.2442696238       -2.1044475340
 H         -1.5584295312       -5.2750177973       -0.2934306596
 H         -1.9373794369       -2.7578688284       -2.0588961956
