  62
        -98.94944270
 C         -1.2181256493       -1.5981561005       -0.2882591596
 C         -2.4788633898       -1.3008724212        0.2776909995
 C         -3.1351488402       -0.0886175316       -0.2235880111
 C         -2.5268430100        0.6591637786       -1.1617843008
 C         -3.0541230703        1.9384693782       -1.7530387313
 C         -2.7731848416        3.1755641685       -0.8879813812
 C         -3.6449424025        3.3062646082        0.3616151582
 H         -3.5222223034        4.3265621383        0.7308225281
 H         -4.6943455323        3.1796297775        0.0917351475
 C         -3.2761980127        2.3327037885        1.4897548085
 H         -2.2626079224        1.9558456691        1.3293290893
 H         -3.2589865637        2.8711996986        2.4408116485
 C         -4.2384224522        1.1561066480        1.6572799480
 H         -5.2129796126        1.5261875775        1.9854768573
 H         -3.8445570623        0.5038605983        2.4411547684
 C         -4.4411974608        0.3104817677        0.3940318280
 H         -4.9658084905       -0.6053296226        0.6790710278
 H         -5.0522773607        0.8534539873       -0.3269313325
 H         -1.7229108018        3.1667984191       -0.5836498105
 H         -2.9337315417        4.0572339283       -1.5133549215
 H         -2.5549190998        2.0675406384       -2.7158785310
 H         -4.1270924102        1.8518104376       -1.9274844420
 O         -1.3302345894        0.3191113992       -1.7087575099
 C         -0.6335164291       -0.7975002903       -1.2695300093
 O          0.4673333514       -0.9694768198       -1.8257879686
 O         -3.0270236300       -2.0120138414        1.1643879292
 C         -0.4279130290       -2.7794682100        0.2383397411
 C          0.9266826304       -2.3317305192        0.7339128619
 C          2.0508516809       -3.1484246585        0.6886069228
 C          3.2716606004       -2.6901515778        1.1523511335
 C          3.4067581593       -1.4048997576        1.6454114235
 C          2.2881157888       -0.5824165483        1.6980806026
 C          1.0600903894       -1.0594174990        1.2725052018
 H          0.2020975689       -0.4073224495        1.3375461312
 N          2.3670748277        0.7401872218        2.1748534925
 S          1.7197322576        1.9625182813        1.2350638919
 O          2.2841334366        3.1744500417        1.7963400021
 O          0.2806357177        1.8921656105        1.2306663210
 C          2.3620056489        1.7417214215       -0.4143619276
 C          1.5175888495        1.9040610909       -1.4909843182
 C          2.0261651904        1.7701308910       -2.7725715879
 C          3.3671024607        1.4762397718       -2.9543858069
 C          4.2076091701        1.3240098824       -1.8623034364
 C          3.7042991991        1.4613237123       -0.5798127467
 H          4.3405224386        1.3578186827        0.2839570737
 H          5.2516097703        1.0964123930       -2.0066844156
 H          3.7586424314        1.3640591519       -3.9532295967
 H          1.3678616309        1.8829668605       -3.6188711983
 H          0.4756807293        2.1146029003       -1.3118240589
 H          3.2775568673        1.0078777024        2.5207813031
 H          4.3637054989       -1.0423418370        1.9888816040
 H          4.1342288308       -3.3376675773        1.1138913342
 H          1.9699233118       -4.1451137086        0.2861971128
 H         -1.0034272193       -3.1618526402        1.0955418507
 C         -0.3372400276       -3.8709825101       -0.8102870287
 C         -0.3525949871       -5.3160939201       -0.4123004086
 C         -1.5480793570       -4.7109024708       -1.0824009894
 H         -1.7667457261       -4.9866598711       -2.1030313495
 H         -2.4270357275       -4.5155630912       -0.4853454500
 H          0.2496697337       -6.0124535598       -0.9761925281
 H         -0.4286140076       -5.5462051000        0.6398216714
 H          0.2702862828       -3.5775147598       -1.6590812384
