  62
        -98.94537834
 C         -2.5505679804       -0.4114650683        0.0832756091
 C         -2.5072065301        0.5467370120        1.1310518388
 C         -2.4020518191        1.9510361318        0.7299533683
 C         -2.3808914985        2.2672905113       -0.5768873518
 C         -2.2391903474        3.6496075910       -1.1521500523
 C         -0.7790494171        4.1153919700       -1.2462571520
 C         -0.1341229972        4.5020354101        0.0856869980
 H          0.7892005732        5.0345598994       -0.1510591519
 H         -0.7858033269        5.1964075107        0.6178663876
 C          0.2067754017        3.3097190302        0.9908321386
 H          1.2146596917        3.4402591396        1.3931995288
 H          0.2208050313        2.3952595999        0.3912060289
 C         -0.7350849687        3.1258798112        2.1819086284
 H         -0.4339761195        2.2236246412        2.7203024688
 H         -0.6337143584        3.9755922314        2.8611272181
 C         -2.2148948587        2.9774033121        1.8060850880
 H         -2.7599274792        2.6359049327        2.6896044579
 H         -2.6228091180        3.9372764422        1.4907841475
 H         -0.1895132874        3.3217509594       -1.7139953915
 H         -0.7539600263        4.9854365098       -1.9070549423
 H         -2.8156966571        4.3609077216       -0.5598860427
 H         -2.6567521371        3.6142822509       -2.1607448124
 O         -2.4967107188        1.3304754610       -1.5513687115
 C         -2.5157129498       -0.0245817688       -1.2562498410
 O         -2.5217282700       -0.7474700992       -2.2761939608
 O         -2.5452261507        0.2335911325        2.3508593589
 C         -2.4729602215       -1.8683761282        0.5177983097
 C         -1.0048619318       -2.2147786892        0.6015151302
 C         -0.3999100024       -2.5644545291        1.8025662405
 C          0.9720521275       -2.7369546100        1.8788104610
 C          1.7705787680       -2.5285689809        0.7674991912
 C          1.1708623385       -2.1855668110       -0.4363317291
 C         -0.2045718314       -2.0652216701       -0.5226924396
 H         -0.6528680609       -1.7847278902       -1.4648895698
 N          1.9916186891       -1.8448777719       -1.5499968190
 S          2.3081853602       -0.1817599721       -1.5217184395
 O          1.1315474906        0.5834937988       -1.1709413802
 O          2.9102643908        0.1288446470       -2.8006121495
 C          3.5224872699       -0.0637015425       -0.2287793692
 C          4.8116963097       -0.4809396734       -0.4968904387
 C          5.7528062194       -0.4376987037        0.5191949616
 C          5.3885226993        0.0153214670        1.7787077913
 C          4.0897779495        0.4306184580        2.0309639708
 C          3.1435708098        0.3902653182        1.0187464705
 H          2.1211434900        0.6992173690        1.1706705801
 H          3.8066518695        0.7812377585        3.0103801206
 H          6.1210803591        0.0455021368        2.5697554515
 H          6.7638301193       -0.7591089444        0.3275375320
 H          5.0468168398       -0.8219079239       -1.4913836185
 H          1.5381800992       -2.0505715120       -2.4315449991
 H          2.8430089679       -2.6209004416        0.8228402015
 H          1.4267223470       -3.0074542500        2.8192050212
 H         -1.0102672827       -2.6683037584        2.6874757204
 H         -2.8854017119       -1.8967584276        1.5353569995
 C         -3.2427917619       -2.8460848380       -0.3424436202
 C         -3.6087231030       -4.1803980876        0.2340484202
 C         -4.6707625122       -3.1512449470       -0.0075177505
 H         -5.3662058721       -3.3027629168       -0.8190930607
 H         -5.1011637922       -2.6512731664        0.8478062591
 H         -3.5742136334       -5.0450414078       -0.4105675995
 H         -3.3210220834       -4.3799825774        1.2550366303
 H         -2.9788834116       -2.8041160886       -1.3908187902
