  62
        -98.94615469
 C         -1.4393174596       -1.1443120500       -0.0289961292
 C         -2.3737553894       -0.7115579999        0.9486837609
 C         -3.1024830592        0.5277885403        0.6513265911
 C         -2.8417971992        1.1826702702       -0.4942203789
 C         -3.5419168990        2.4293748104       -0.9500171688
 C         -4.7700727292        2.0937273307       -1.8078926887
 C         -5.6921989093        1.0456136208       -1.1849649386
 H         -5.1656344195        0.0896403907       -1.1373357487
 H         -6.5374998294        0.9123535510       -1.8636261585
 C         -6.2116324090        1.4073782809        0.2135400415
 H         -7.2809879991        1.1901642311        0.2565570616
 H         -6.0920677888        2.4772666108        0.3881182715
 C         -5.5529983290        0.6304302107        1.3550374914
 H         -5.5913136493       -0.4402562193        1.1390303614
 H         -6.1368167789        0.8013606908        2.2633494515
 C         -4.0996883589        1.0086077804        1.6672664812
 H         -3.8253290889        0.5246968503        2.6089680912
 H         -4.0227326987        2.0894080804        1.8010079412
 H         -4.4257770394        1.7155952306       -2.7733731487
 H         -5.3296227190        3.0141403908       -1.9845712186
 H         -2.8460257890        3.0202333803       -1.5484756089
 H         -3.8420683188        3.0103251504       -0.0801173987
 O         -1.9266621294        0.7508142301       -1.3972917791
 C         -1.2020647996       -0.4158699701       -1.1943679392
 O         -0.4039867198       -0.6684521402       -2.1182336293
 O         -2.5881089893       -1.3366585099        2.0201692409
 C         -0.6529475298       -2.4110110802        0.2751922606
 C          0.7425259904       -2.0011919405        0.6762722305
 C          1.0544327006       -1.8015443706        2.0175019604
 C          2.3003888607       -1.3307855809        2.3913978403
 C          3.2516503206       -1.0229201610        1.4346047502
 C          2.9417090804       -1.2048736509        0.0933986302
 C          1.7075175903       -1.7163908407       -0.2785051097
 H          1.4770115801       -1.8378128006       -1.3250610596
 N          3.8719553404       -0.8129669511       -0.8903785299
 S          4.4382762607        0.7576197788       -0.7333325999
 O          4.6879260706        1.2226653288       -2.0798245699
 O          5.5814516608        0.7616915986        0.1465525099
 C          3.1089344610        1.6833999891        0.0220943003
 C          1.8747031909        1.7036123993       -0.5969227796
 C          0.8385198311        2.4015995695        0.0015686906
 C          1.0483687114        3.0630648094        1.2013687206
 C          2.2950951915        3.0384164292        1.8066827004
 C          3.3355642713        2.3415812590        1.2140485403
 H          4.3184450413        2.2899826888        1.6535002201
 H          2.4568982217        3.5546993291        2.7391089604
 H          0.2336431416        3.5976277796        1.6638358707
 H         -0.1311194889        2.4133899197       -0.4706476493
 H          1.7193423807        1.1746178794       -1.5245436496
 H          3.5348018302       -0.9676650209       -1.8304452999
 H          4.2200562308       -0.6313986712        1.7016287400
 H          2.5296806709       -1.1886974710        3.4362622602
 H          0.3001303906       -2.0013535505        2.7648499205
 H         -1.1431560397       -2.8514537301        1.1531372407
 C         -0.6838334901       -3.4199977702       -0.8534605194
 C         -0.2508141404       -4.8280467703       -0.5780263695
 C         -1.6973062803       -4.5229587400       -0.8225359793
 H         -2.1418611105       -4.8396230598       -1.7542416693
 H         -2.3753193102       -4.5574848199        0.0176876808
 H          0.3003559594       -5.3573339803       -1.3401324096
 H          0.0536413897       -5.0664726704        0.4298472604
 H         -0.4461903302       -2.9998973202       -1.8223360994
