  62
        -98.93493908
 C         -1.7032620799       -1.0335032366       -0.0158338775
 C         -2.1349859044        0.1863649694       -0.5881731369
 C         -3.5936683234        0.3439862474       -0.7653917850
 C         -4.4159778880       -0.6466816569       -0.3821001346
 C         -5.9185900000       -0.6660801496       -0.4344802524
 C         -6.5145212566       -0.1999689303        0.9045787812
 C         -6.7008094706        1.3112143284        1.0348849727
 H         -7.5216876117        1.6283793127        0.3882478719
 H         -6.9990950843        1.5143703437        2.0659934547
 C         -5.4661765435        2.1544738218        0.7052219132
 H         -4.5780773859        1.6979276388        1.1460962811
 H         -5.5932438244        3.1316361996        1.1752829682
 C         -5.2562697404        2.3537745982       -0.8032564526
 H         -5.1271794865        3.4177910562       -1.0125245620
 H         -6.1568827410        2.0425357879       -1.3324650658
 C         -4.0344342298        1.6364824108       -1.3967002061
 H         -4.2065752956        1.4631409886       -2.4646053131
 H         -3.1590558901        2.2902332213       -1.3253468458
 H         -7.4892103520       -0.6734801581        1.0383601137
 H         -5.8630774062       -0.5614675472        1.7043299135
 H         -6.2838033565       -0.0623550280       -1.2598565719
 H         -6.2105194699       -1.7050077960       -0.6018584806
 O         -3.9590428496       -1.7971371901        0.1850121335
 C         -2.6106144028       -2.0132483095        0.3960358653
 O         -2.3463923581       -3.0958035446        0.9552755031
 O         -1.3580829745        1.1134458631       -0.9350937765
 C         -0.2345706651       -1.3320570756        0.2326787429
 C          0.4590854114       -0.1268887541        0.8169069078
 C          0.0628207830        0.3286776473        2.0721444971
 C          0.6669391725        1.4287392422        2.6480893863
 C          1.6979461359        2.0835896348        1.9966801040
 C          2.1004009546        1.6371266167        0.7444335664
 C          1.4813956184        0.5393606086        0.1612810702
 H          1.7793811334        0.2473014386       -0.8309181726
 N          3.1416061941        2.2762172266        0.0582768044
 S          4.1822288120        1.3953852664       -0.9006537602
 O          5.3989550285        2.1800544693       -0.9247453332
 O          3.5918781958        1.1219666828       -2.1863252894
 C          4.4634874330       -0.1335601756       -0.0223553207
 C          4.9021969483       -0.0734391046        1.2856211497
 C          5.1149801886       -1.2550361193        1.9766287612
 C          4.8899280882       -2.4717300825        1.3509599949
 C          4.4589588039       -2.5161860244        0.0343961091
 C          4.2421576254       -1.3366987714       -0.6603474544
 H          3.9018463300       -1.3253695767       -1.6837390632
 H          4.2869554900       -3.4634837011       -0.4518169844
 H          5.0523381181       -3.3910912591        1.8910670989
 H          5.4532357666       -1.2243535081        2.9997632271
 H          5.0760883838        0.8867914879        1.7428946843
 H          3.6106665377        3.0107622937        0.5660306922
 H          2.1744621458        2.9418718287        2.4453098778
 H          0.3400408222        1.7766382420        3.6164612736
 H         -0.7393684725       -0.1865310323        2.5834726976
 H         -0.2345450486       -2.1225322538        1.0015568934
 C          0.4964251118       -1.9030302614       -0.9730512277
 C         -0.2160402928       -2.7332171619       -1.9971540176
 C          0.2933821789       -1.3716225748       -2.3586705132
 H          1.1516272323       -1.2922820493       -3.0108846426
 H         -0.4180964657       -0.5711010121       -2.4876806271
 H          0.2904255734       -3.5977978711       -2.3989170672
 H         -1.2820589651       -2.8664329316       -1.8822096106
 H          1.5035486461       -2.2175739652       -0.7159463230
