  62
        -98.94585966
 C          2.1964794615        0.0898471335       -0.1112880627
 C          2.1016395086        1.1561198672       -1.0431682958
 C          1.5445013352        2.4154452785       -0.5368577373
 C          1.1880759382        2.5152166510        0.7559981138
 C          0.6369470716        3.7393606161        1.4350455474
 C         -0.8792894438        3.9164945803        1.2761400972
 C         -1.3398865587        4.3392151241       -0.1189432313
 H         -2.3870128406        4.6362764248       -0.0355003971
 H         -0.7764860005        5.2160822120       -0.4400954698
 C         -1.2266585662        3.2374114346       -1.1815670850
 H         -2.1454959818        3.1964715681       -1.7718311497
 H         -1.1319944452        2.2617542879       -0.6984693986
 C         -0.0705846968        3.4137745484       -2.1668283302
 H         -0.0656538420        2.5453139386       -2.8317025133
 H         -0.2406873235        4.3041726842       -2.7769920605
 C          1.3140508452        3.5270291901       -1.5143770781
 H          2.0698006695        3.4446301075       -2.2996881307
 H          1.4207077674        4.4955399967       -1.0254794949
 H         -1.3756948994        2.9826705366        1.5497592734
 H         -1.1931890197        4.6843777381        1.9867263074
 H          1.1488143365        4.6259552527        1.0597440032
 H          0.8614975491        3.6325109927        2.4984436181
 O          1.3153364032        1.4801122041        1.6249632036
 C          1.7564164868        0.2273576209        1.2063979019
 O          1.7068146073       -0.6377042442        2.0986799201
 O          2.4644754129        1.0570237258       -2.2460959126
 C          2.6410656375       -1.2648583779       -0.6382160854
 C          1.5654825752       -2.2738068850       -0.3215802489
 C          1.7350675752       -3.3494368887        0.5388213328
 C          0.6717277323       -4.1915789656        0.8150075581
 C         -0.5740863543       -3.9720955572        0.2562948281
 C         -0.7540240205       -2.8994244920       -0.6113722807
 C          0.3198103996       -2.0748317189       -0.9059383555
 H          0.1799171103       -1.2473370936       -1.5872870276
 N         -2.0041724462       -2.6639463416       -1.2098421121
 S         -2.6630516039       -1.1349301934       -1.3391399267
 O         -3.9861736773       -1.3622055131       -1.8774472821
 O         -1.7965611436       -0.2825881851       -2.1106560730
 C         -2.8073406580       -0.5274704689        0.3305376426
 C         -4.0397158200       -0.5528530562        0.9540340821
 C         -4.1386207600       -0.1101354983        2.2631991700
 C         -3.0065421840        0.3335851098        2.9303424850
 C         -1.7747664232        0.3456250381        2.2939341188
 C         -1.6739529493       -0.0825368023        0.9798621481
 H         -0.7280057243       -0.0787704929        0.4603470191
 H         -0.8830104069        0.6731887468        2.8061660748
 H         -3.0804317340        0.6729163366        3.9514646380
 H         -5.0949988639       -0.1160014575        2.7607798887
 H         -4.8916293210       -0.9075710335        0.3968919772
 H         -2.7190874873       -3.3287312750       -0.9516427120
 H         -1.4035250238       -4.6233323036        0.4868857754
 H          0.8114101325       -5.0228887974        1.4891604355
 H          2.6906445024       -3.5120497966        1.0092886589
 H          2.6604349577       -1.1299649393       -1.7332034621
 C          4.0397793624       -1.7039922417       -0.2392634597
 C          5.1190681200       -0.6913698843       -0.0003045006
 C          4.6041952818       -1.5200178302        1.1362245329
 H          5.2439128157       -2.2972848141        1.5286525338
 H          3.9804700817       -1.0509547772        1.8793649458
 H          6.1088438588       -0.8920699927       -0.3821130816
 H          4.8381198773        0.3514108512       -0.0399700982
 H          4.3374015190       -2.6059477080       -0.7663423209
