  62
        -98.94410755
 C         -1.4435981718       -1.3052718148        0.7014395219
 C         -2.4586595080       -1.1950359408       -0.2800390637
 C         -3.3539588706       -0.0368740614       -0.1393014186
 C         -3.1341166511        0.8736972181        0.8255826176
 C         -3.9742808758        2.0907874052        1.1061191995
 C         -3.6742538408        3.2988471055        0.2076641392
 C         -4.1565496609        3.1762515107       -1.2384753599
 H         -5.2092314536        2.8919832870       -1.2477954476
 H         -4.0844716416        4.1700829013       -1.6848836687
 C         -3.3484357981        2.1925169564       -2.0957741031
 H         -2.3954648165        1.9797479539       -1.6068034819
 H         -3.1164268171        2.6520155105       -3.0592361234
 C         -4.0542627582        0.8677223645       -2.3800677088
 H         -3.3739812662        0.2317310172       -2.9521300510
 H         -4.9410058832        1.0477170134       -2.9921088587
 C         -4.4782049246        0.0992326824       -1.1225755411
 H         -5.3315193065        0.5895430172       -0.6539000231
 H         -4.7765753315       -0.9079149602       -1.4243729056
 H         -2.5988602368        3.4884860315        0.2145802898
 H         -4.1659136376        4.1649685751        0.6567603146
 H         -3.7723334035        2.3733257012        2.1415793836
 H         -5.0299930318        1.8302600084        1.0204862816
 O         -2.1020416946        0.7689490237        1.7043873616
 C         -1.2416331184       -0.3127206509        1.6660439575
 O         -0.3477291251       -0.2875003719        2.5352816425
 O         -2.6395490501       -2.0102250217       -1.2212109691
 C         -0.4563651274       -2.4630853578        0.7473249129
 C          0.6708395238       -2.1539612479       -0.2065234405
 C          0.5481159350       -2.3248757687       -1.5809978482
 C          1.5821263070       -1.9633985331       -2.4267458940
 C          2.7535050535       -1.4224872226       -1.9243503710
 C          2.8781323764       -1.2368071094       -0.5545077611
 C          1.8445094292       -1.6063660316        0.2939581323
 H          1.9365745981       -1.4393201917        1.3590963472
 N          4.0575560663       -0.6469390579       -0.0403603396
 S          4.2282694869        0.9867757785       -0.3729566214
 O          4.3046798879        1.1600967257       -1.8004622070
 O          5.3728001011        1.4269548890        0.3907456258
 C          2.7410734015        1.7393581745        0.2608241419
 C          1.5882760891        1.6769754995       -0.4957783383
 C          0.4169575595        2.1930751119        0.0324705610
 C          0.4139304111        2.7567674044        1.2979736861
 C          1.5800080065        2.8103254251        2.0446448644
 C          2.7545746883        2.2913722031        1.5258954548
 H          3.6828916317        2.3108647955        2.0744564383
 H          1.5716153101        3.2435475999        3.0318260575
 H         -0.5052346413        3.1422756045        1.7107146497
 H         -0.4939862047        2.1390795860       -0.5440866106
 H          1.6212095880        1.2330517105       -1.4779160096
 H          4.1576618176       -0.7811242226        0.9569907193
 H          3.5589361918       -1.1160350528       -2.5717177962
 H          1.4740812744       -2.1008166780       -3.4920912608
 H         -0.3739436725       -2.7145151235       -1.9828856966
 H         -0.0403495822       -2.4568887793        1.7638384387
 C         -1.0879072666       -3.8166434641        0.5007851105
 C         -0.3350948750       -5.0466420497        0.9068456766
 C         -1.5544985531       -4.6275835610        1.6705603293
 H         -2.4568872948       -5.2108291083        1.5651063464
 H         -1.4194194575       -4.2095217141        2.6577629796
 H         -0.3972740326       -5.9202382759        0.2764481576
 H          0.6280155105       -4.9116433702        1.3761015628
 H         -1.6846428338       -3.8650268195       -0.3993918184
