  62
        -98.94467681
 C         -2.5675348988        0.1743894394        0.3556660710
 C         -2.1484607221        0.7146742699       -0.8845887921
 C         -1.6778632851        2.1066523877       -0.8495630921
 C         -1.6566575636        2.7667181750        0.3221917439
 C         -1.1876549732        4.1810740731        0.5061330118
 C          0.3011419133        4.2441566136        0.8700730936
 C          1.2030995095        3.4270599935       -0.0553700335
 H          2.2344771488        3.6009700825        0.2619651174
 H          1.0061078396        2.3620670999        0.0920672296
 C          1.0630459477        3.7636507702       -1.5465385751
 H          0.5996137417        4.7445018388       -1.6650239126
 H          2.0621646764        3.8190548993       -1.9835967258
 C          0.2824276895        2.7250742143       -2.3550513321
 H          0.6611563716        1.7273510917       -2.1199559119
 H          0.4663140741        2.9101301109       -3.4170544416
 C         -1.2377130250        2.7220809880       -2.1474589460
 H         -1.6280295633        3.7379398181       -2.2458292400
 H         -1.6797870901        2.1042756478       -2.9346333709
 H          0.6136593925        5.2904668046        0.8543404229
 H          0.4270773787        3.8647865686        1.8871541222
 H         -1.3711850265        4.7375954616       -0.4110575679
 H         -1.7677830347        4.6290452203        1.3152936374
 O         -2.0509941040        2.2078642559        1.4969147317
 C         -2.4905431883        0.8960654702        1.5448272265
 O         -2.7918646151        0.4943493525        2.6899283250
 H         -0.4686002346       -1.0478593957        1.1043694902
 C         -0.6302879347       -1.9003295277        0.4562219459
 C         -1.9132134317       -2.1825072646        0.0015230016
 C         -2.0905555544       -3.2941200929       -0.8109703294
 C         -1.0088956411       -4.0794136002       -1.1761195001
 C          0.2708947772       -3.7671421731       -0.7551440305
 C          0.4547234767       -2.6647265240        0.0692845424
 N          1.7718998158       -2.2840267425        0.4642109093
 S          2.0563024078       -0.6289253022        0.5054867013
 O          1.7387792629       -0.0643646779        1.8044686049
 O          1.4189549248       -0.0412374020       -0.6430488879
 C          3.8249254507       -0.6176075230        0.2785024490
 C          4.6611820465       -0.3512858919        1.3445393522
 C          6.0330270950       -0.3839552835        1.1463216025
 C          6.5418555866       -0.6839661977       -0.1078082346
 C          5.6892782453       -0.9480151366       -1.1698153345
 C          4.3177745773       -0.9159053085       -0.9773988981
 H          3.6148357187       -1.1067878142       -1.7716848266
 H          6.0881677308       -1.1786910904       -2.1445156837
 H          7.6093610314       -0.7098920007       -0.2596186976
 H          6.6974012501       -0.1758983259        1.9696241974
 H          4.2198648766       -0.1167009538        2.3000564382
 H          2.0886777803       -2.7290921416        1.3141745189
 H          1.1211275377       -4.3567745783       -1.0567394897
 H         -1.1656429457       -4.9367991659       -1.8127607988
 H         -3.0774790987       -3.5409791234       -1.1675948864
 C         -3.0340066957       -1.2685696995        0.4354806985
 H         -3.2359483620       -1.4621753844        1.5002712464
 C         -4.3143445524       -1.4654264048       -0.3487749176
 C         -5.3091266934       -2.5020556818        0.0773973544
 C         -5.6119018853       -1.0477559591        0.2730020523
 H         -6.3584309921       -0.5842499007       -0.3540255911
 H         -5.5720819538       -0.6445646565        1.2748549406
 H         -5.8538833735       -3.0378230656       -0.6851480256
 H         -5.0751698928       -3.0907132792        0.9516220653
 H         -4.1834812159       -1.2801795578       -1.4084535558
 O         -2.1869961052        0.0745656878       -1.9675385608
