  62
        -98.94359719
 C         -1.8037623028       -0.5407260074        0.3795936691
 C         -2.9590708239       -0.5681531116        1.1960030163
 C         -4.2353586621       -0.7284916528        0.4906369182
 C         -4.2455518039       -0.8597739519       -0.8486269136
 C         -5.4655033094       -1.0516133278       -1.7085009039
 C         -6.1799585766        0.2554908131       -2.0786179922
 C         -6.9498309698        0.9221017098       -0.9377896823
 H         -7.5734625911        1.6997425977       -1.3833145871
 H         -7.6178902366        0.1937285286       -0.4771132639
 C         -6.0602547429        1.5600715718        0.1384099670
 H         -6.4349877860        2.5581457052        0.3766768056
 H         -5.0477209988        1.6841190240       -0.2529738685
 C         -5.9916970209        0.7770976450        1.4497002877
 H         -6.9781283914        0.7600600854        1.9184391450
 H         -5.3077499373        1.2978571616        2.1250324217
 C         -5.4975964073       -0.6675037923        1.2968239590
 H         -5.2760215436       -1.0611178072        2.2918902967
 H         -6.2721381628       -1.2838394302        0.8411195231
 H         -6.8870826909        0.0249889174       -2.8787774714
 H         -5.4424904275        0.9553955774       -2.4783488377
 H         -6.1655188393       -1.7212616125       -1.2081611768
 H         -5.1241570391       -1.5293365560       -2.6292712124
 O         -3.1095218415       -0.8511522957       -1.5954573853
 C         -1.8652969371       -0.6698769837       -1.0080640208
 O         -0.9154310834       -0.6495870481       -1.8126471448
 O         -2.9250969283       -0.4603698182        2.4516872580
 C         -0.4469240174       -0.3533408516        1.0315743669
 C          0.2319517527        0.8835507430        0.4973093435
 C         -0.5066090222        2.0567066981        0.3609185298
 C          0.0773316957        3.2076148711       -0.1294675114
 C          1.4168566976        3.2203791538       -0.4773703735
 C          2.1676751380        2.0615230277       -0.3304495554
 C          1.5740166751        0.9023679079        0.1520477004
 H          2.1747586027        0.0148381155        0.2584991029
 N          3.5237631240        2.0375294264       -0.6855152455
 S          4.6252348346        1.2040102647        0.2561989768
 O          4.2678080670        1.2414996249        1.6550234184
 O          5.9066668350        1.7857457149       -0.0843609534
 C          4.5813273574       -0.4707502973       -0.3458187862
 C          4.4222182728       -0.6985884109       -1.6982158720
 C          4.4341192767       -2.0044348747       -2.1617273031
 C          4.6133357021       -3.0537542613       -1.2731150187
 C          4.7787477107       -2.8078410273        0.0810011450
 C          4.7628301472       -1.5041460621        0.5519195505
 H          4.8754098253       -1.2678684827        1.5981846767
 H          4.9181078051       -3.6251523203        0.7709234634
 H          4.6223758969       -4.0689144358       -1.6376296130
 H          4.3016701129       -2.1996502035       -3.2137785022
 H          4.2810003961        0.1381848809       -2.3616295283
 H          3.8972586291        2.9178976297       -1.0087088245
 H          1.8758400505        4.1190215570       -0.8609421618
 H         -0.5120305703        4.1060052365       -0.2367829001
 H         -1.5516354432        2.0512934672        0.6401503092
 H         -0.6553228893       -0.1907290369        2.1002458125
 C          0.3829186312       -1.6116521374        0.8854390728
 C          1.4022048610       -1.9735764448        1.9225938879
 C          0.1286260143       -2.7560241302        1.8186059335
 H          0.1707939964       -3.7607297029        1.4261571560
 H         -0.6247371101       -2.6154097855        2.5799939629
 H          2.3186195942       -2.4424481034        1.5977704444
 H          1.5246607746       -1.3027295773        2.7598604530
 H          0.6001056054       -1.8474150577       -0.1505677517
