  62
        -98.93675315
 C          2.4209177995        1.1516551350        0.1583203468
 C          2.4821047094       -0.0406024338       -0.6050063766
 C          3.8347212743       -0.5205845517       -0.9341696177
 C          4.9071765597        0.1735259708       -0.5147177858
 C          6.3348972519       -0.2346350727       -0.7316716349
 C          6.8503948875       -1.0859575853        0.4372659434
 C          5.9169708299       -2.2329522452        0.8250412580
 H          6.3970962717       -2.7818112744        1.6380877157
 H          4.9875514339       -1.8183438232        1.2223773768
 C          5.5890380115       -3.2001998599       -0.3209428022
 H          5.6695750831       -4.2236510890        0.0512547559
 H          6.3212362653       -3.0879374442       -1.1213375009
 C          4.1805800792       -3.0463618835       -0.8982632408
 H          3.9798718663       -3.9087393256       -1.5395076868
 H          3.4466223901       -3.0635408155       -0.0883944156
 C          3.9376742297       -1.7860632626       -1.7382874220
 H          4.7125487911       -1.6965353116       -2.5023705582
 H          2.9717289036       -1.9022178037       -2.2386875096
 H          7.8293036261       -1.4861692486        0.1673418297
 H          6.9759830923       -0.4379793114        1.3077836725
 H          6.9431043061        0.6681834112       -0.8082677946
 H          6.4104558152       -0.7924430362       -1.6629125099
 O          4.8089039315        1.3147380197        0.2145111103
 C          3.5729888889        1.8157134796        0.5876483605
 O          3.6305681371        2.8407003162        1.2960677584
 O          1.4737133759       -0.6831230484       -0.9955353766
 C          1.0959492190        1.7449863337        0.6052150740
 C          0.1805330018        0.6558806035        1.1078954596
 C          0.5837150457       -0.0971357041        2.2083640164
 C         -0.2187241577       -1.1030925259        2.7091961102
 C         -1.4510771397       -1.3663696093        2.1371489894
 C         -1.8606443688       -0.6237611533        1.0367983299
 C         -1.0461064435        0.3785000788        0.5280952064
 H         -1.3813560647        0.9216518245       -0.3394953238
 N         -3.0932054123       -0.8828567676        0.4162703352
 S         -3.9601761821        0.4167743135       -0.2192924584
 O         -3.4950792587        0.6924441370       -1.5550480329
 O         -3.9351695964        1.5278813056        0.7063570090
 C         -5.5949444449       -0.2934687654       -0.2883015972
 C         -6.4894153228       -0.0398030505        0.7343245116
 C         -7.7453269209       -0.6243811668        0.6869109040
 C         -8.0823576873       -1.4508377510       -0.3744512141
 C         -7.1742308794       -1.6954387236       -1.3940604983
 C         -5.9173431809       -1.1131924493       -1.3535642701
 H         -5.1819923973       -1.2668927397       -2.1262221093
 H         -7.4407356839       -2.3362235118       -2.2190501440
 H         -9.0599932934       -1.9050525193       -0.4088983123
 H         -8.4545657714       -0.4336624526        1.4761302345
 H         -6.1861278595        0.6156739406        1.5348356546
 H         -3.6835611758       -1.5039449696        0.9521845411
 H         -2.0824084006       -2.1486561810        2.5306305729
 H          0.1119459176       -1.6819567351        3.5587359466
 H          1.5441596162        0.1150187740        2.6599817738
 H          1.3473031819        2.3909125797        1.4639699081
 C          0.4344660321        2.6429724231       -0.4292266965
 C          1.2499419445        3.4443070593       -1.3981316770
 C          0.4115480382        2.3037468757       -1.8877865583
 H         -0.4872221149        2.5215734979       -2.4470551245
 H          0.9035458046        1.3949289864       -2.1963799867
 H          0.9336543774        4.4518562630       -1.6225471778
 H          2.3226041191        3.3176875795       -1.3729229328
 H         -0.4530188687        3.1287384000       -0.0318253319
