  62
        -98.93401104
 C          2.5035102620        1.2442664068        0.3135122368
 C          2.5373898605        0.3393935629       -0.7730698625
 C          3.4698031256       -0.8038436564       -0.6584194539
 C          4.2039686814       -0.9378489754        0.4607518274
 C          5.1791789565       -2.0296384339        0.8117993253
 C          4.4801490758       -3.3324839797        1.2342561762
 C          3.2894316815       -3.7343525525        0.3672825506
 H          2.8142937726       -4.5997577178        0.8370427195
 H          2.5565233970       -2.9249838936        0.3660432688
 C          3.6304829925       -4.1127469751       -1.0720789137
 H          2.7053293810       -4.4497876488       -1.5464550948
 H          4.3259693937       -4.9549948846       -1.0647166478
 C          4.2276703730       -2.9984407331       -1.9336533442
 H          4.1970940557       -3.3398154913       -2.9725035684
 H          5.2751130034       -2.8371282073       -1.6934817947
 C          3.4651978082       -1.6777101926       -1.8896501397
 H          3.8280731697       -1.0404769990       -2.7053160043
 H          2.4099129796       -1.8643342133       -2.1193225609
 H          5.2189256023       -4.1355867104        1.2374640295
 H          4.1178041551       -3.2038471770        2.2573400494
 H          5.8581098278       -2.2037753031       -0.0175533899
 H          5.7700925681       -1.6637225902        1.6544433046
 O          4.1054758069       -0.0624036422        1.5033249548
 C          3.2595778947        1.0279386879        1.4667077288
 O          3.2605246113        1.7156887393        2.5085631870
 O          1.8249734059        0.4577530024       -1.8026478780
 C          1.5804487882        2.4502472514        0.3203817353
 C          0.1999688247        2.0479181785       -0.1403461742
 C         -0.4760132928        2.6584515005       -1.1875499268
 C         -1.7480416359        2.2396895053       -1.5379711108
 C         -2.3708830200        1.2092798456       -0.8591951459
 C         -1.7059376438        0.5935385892        0.1934303481
 C         -0.4372924230        1.0225465972        0.5491535659
 H          0.0809318921        0.5429616495        1.3723012459
 N         -2.3251880231       -0.4675206912        0.8795648077
 S         -3.8717034390       -0.2165043879        1.4852123866
 O         -4.0950374618        1.1755345100        1.8014017846
 O         -4.0051161858       -1.1533483853        2.5798735649
 C         -4.9431747694       -0.7212490752        0.1560506265
 C         -4.8093998926       -2.0045391140       -0.3366192493
 C         -5.6400054050       -2.4153655827       -1.3668881676
 C         -6.5869344006       -1.5423192983       -1.8816743394
 C         -6.7114577862       -0.2585019293       -1.3731766896
 C         -5.8828604330        0.1592041635       -0.3432388839
 H         -5.9392054239        1.1494074749        0.0800216061
 H         -7.4486130738        0.4183135065       -1.7742508199
 H         -7.2317317008       -1.8649190906       -2.6838186879
 H         -5.5460465048       -3.4129783306       -1.7647474442
 H         -4.0639760955       -2.6525910200        0.0933908075
 H         -1.7375472691       -0.8923254738        1.5822428275
 H         -3.3574674381        0.8754362266       -1.1361389051
 H         -2.2590608506        2.7190450039       -2.3589819002
 H         -0.0000959220        3.4483227487       -1.7445570443
 H          1.5020386539        2.7376977221        1.3829060089
 C          2.1334613382        3.6639539268       -0.4120728251
 C          3.6104447135        3.8627696112       -0.5735586249
 C          2.7595067585        3.5647520669       -1.7694418729
 H          2.5768322234        4.3607436793       -2.4765492631
 H          2.8218674238        2.5863454566       -2.2178737337
 H          4.0079437772        4.8598593116       -0.4566519491
 H          4.2642676781        3.0870802163       -0.2013648303
 H          1.5519265300        4.5575960002       -0.2065922601
