  62
        -98.93581846
 C          0.7292566524        1.5080119883        0.5877542017
 C          1.2025288492        0.7752256442       -0.5260436886
 C          2.3812798452       -0.0904356246       -0.2898902788
 C          2.8353058527       -0.2463758093        0.9649973490
 C          4.0322959412       -1.0293066546        1.4393057516
 C          5.3419332555       -0.7148288263        0.6964792075
 C          5.8487309190       -1.8805076136       -0.1515245233
 H          6.9219131598       -1.7557970479       -0.3120274021
 H          5.7082445617       -2.8084781437        0.4065324620
 C          5.1859524838       -2.0037053103       -1.5216362893
 H          5.5107607228       -1.1735870497       -2.1527049877
 H          5.5536834338       -2.9237113023       -1.9821154472
 C          3.6546061041       -2.0399634027       -1.5155232124
 H          3.2922160020       -2.6184863594       -0.6684037650
 H          3.3415357517       -2.5620039883       -2.4222822330
 C          2.9893970911       -0.6576844400       -1.5450137395
 H          3.6998807014        0.0801706056       -1.9340933207
 H          2.1588537421       -0.6712840757       -2.2583668849
 H          6.1040504297       -0.4725873490        1.4387647270
 H          5.2060120926        0.1684599240        0.0723403489
 H          3.8188192641       -2.0981488974        1.3805852922
 H          4.1353506505       -0.7865586642        2.4991005625
 O          2.2119155585        0.3264052308        2.0372185659
 C          1.1905105784        1.2435287434        1.8785366603
 O          0.7757247713        1.7377772963        2.9469171353
 O          0.6995961212        0.8459448609       -1.6752247321
 C         -0.3272774082        2.5906919595        0.4571631760
 C         -1.4800120122        2.1348157033       -0.4005462446
 C         -1.7522140375        2.6551324315       -1.6593428106
 C         -2.8397882319        2.1996822543       -2.3822046643
 C         -3.6742130256        1.2231431055       -1.8696819078
 C         -3.4115440472        0.6982042070       -0.6096241858
 C         -2.3214541916        1.1562641814        0.1134112082
 H         -2.1299005382        0.7533312816        1.0977149870
 N         -4.2536415312       -0.2761837350       -0.0516839728
 S         -3.6254323196       -1.4625656209        0.9345793854
 O         -4.6141663221       -2.5195492748        0.8924593018
 O         -3.3378047440       -0.9295172255        2.2428470972
 C         -2.1290091414       -2.0236181337        0.1451047540
 C         -2.2122986066       -2.5010467342       -1.1479357680
 C         -1.0665389997       -2.9773686871       -1.7618334487
 C          0.1350738311       -2.9808421228       -1.0714724505
 C          0.2012914165       -2.5013036390        0.2263491278
 C         -0.9386243376       -2.0094139159        0.8404771735
 H         -0.9207822668       -1.6143745965        1.8451089840
 H          1.1348289521       -2.4989619319        0.7661116729
 H          1.0259482233       -3.3585149047       -1.5464512931
 H         -1.1121588438       -3.3465670405       -2.7736199464
 H         -3.1658020601       -2.5042250932       -1.6503952144
 H         -4.9667628322       -0.6319438147       -0.6708132450
 H         -4.5237418075        0.8704957994       -2.4341287164
 H         -3.0382318939        2.6071029038       -3.3617922557
 H         -1.0985000636        3.4000014551       -2.0818261486
 H         -0.7141853747        2.7319781895        1.4801405129
 C          0.2387868009        3.9347783101        0.0170040989
 C          1.6057110276        4.3714475142        0.4500973348
 C          1.3402314760        4.0593869991       -0.9905625773
 H          1.3009408276        4.8800103440       -1.6918282216
 H          1.7482730293        3.1506048912       -1.4037853855
 H          1.7481585085        5.4018676397        0.7391235601
 H          2.1929878955        3.6721260936        1.0279754475
 H         -0.5267370628        4.7045771087       -0.0003393189
