  62
        -98.94079059
 C          1.1218450096        1.4497268212        0.1122484703
 C          1.5408527695        0.4192449512        0.9857547603
 C          2.4856531403       -0.5771936283        0.4487818807
 C          2.8392784411       -0.4956913978       -0.8474458191
 C          3.8311778920       -1.3412275372       -1.6014650587
 C          5.2865203116       -0.9811540266       -1.2624690276
 C          5.5728008406       -0.8024203368        0.2261999326
 H          6.6071861503       -0.4628421664        0.3257587233
 H          4.9339662299       -0.0109242372        0.6220119124
 C          5.4107649106       -2.0598507271        1.0776355222
 H          5.7471829798       -1.8108987572        2.0873798625
 H          6.0706731612       -2.8405353867        0.6927423724
 C          3.9917598708       -2.6255636878        1.1771752711
 H          3.9844094005       -3.3384216280        2.0067010810
 H          3.7315946916       -3.1892677877        0.2855483908
 C          2.9140763501       -1.5900966083        1.4823338607
 H          1.9961251001       -2.1137525588        1.7748722500
 H          3.2113704893       -1.0151347084        2.3667136410
 H          5.5289576715       -0.0407357164       -1.7634847473
 H          5.9369929722       -1.7569040062       -1.6701164174
 H          3.6648972426       -1.1497032870       -2.6637841287
 H          3.6497454023       -2.3964944973       -1.4221576690
 O          2.3315018112        0.4581077822       -1.6780127292
 C          1.4695751105        1.4460454117       -1.2382734895
 O          1.0989316707        2.2311617517       -2.1306143596
 O          1.1563016388        0.3399418707        2.1847078700
 C          0.2076877888        2.5303692706        0.6677270099
 C         -1.1976276008        2.2360562901        0.2077718590
 C         -1.8097966504        2.8858620901       -0.8557820113
 C         -3.0791846400        2.5132685396       -1.2659144822
 C         -3.7635381399        1.4957155192       -0.6252549328
 C         -3.1569717303        0.8402083192        0.4385789674
 C         -1.8858966607        1.2110032997        0.8470651883
 H         -1.4060780110        0.6903751497        1.6660072485
 N         -3.8436362403       -0.2147370113        1.0855409867
 S         -3.9993271691       -1.6204589411        0.1907058463
 O         -4.7304723284       -1.3229945912       -1.0133795641
 O         -4.5917859492       -2.5920602816        1.0805037057
 C         -2.3292848486       -2.1045277803       -0.2094058128
 C         -1.6701987682       -1.4498671397       -1.2311810222
 C         -0.3578818979       -1.7959312891       -1.5089368714
 C          0.2675104321       -2.7852361090       -0.7665207413
 C         -0.4053644583       -3.4282893995        0.2604402081
 C         -1.7150251686       -3.0810518702        0.5485661574
 H         -2.2773973089       -3.5568546006        1.3360410669
 H          0.0872121417       -4.1958433694        0.8357534883
 H          1.2866780723       -3.0536941385       -0.9920703407
 H          0.1722747124       -1.2857920987       -2.2982514610
 H         -2.1863260782       -0.6904025398       -1.7964389824
 H         -3.4425307307       -0.4476555813        1.9841389669
 H         -4.7444024496        1.1839062988       -0.9449572435
 H         -3.5420673497        3.0231833396       -2.0972848723
 H         -1.2836449604        3.6691031205       -1.3759175507
 H          0.2352072181        2.3978736204        1.7582072799
 C          0.6862669584        3.9268068109        0.3364933506
 C          0.1209035574        5.0893756705        1.0945765805
 C          1.5379364874        4.6612220311        1.3264930113
 H          2.3346132174        5.2881916815        0.9551454620
 H          1.7744531070        4.1601277110        2.2539133013
 H         -0.0576890927        6.0128746206        0.5656384006
 H         -0.6059245730        4.8760679800        1.8638559700
 H          0.9156618290        4.0677837113       -0.7120325492
