  62
        -98.93602762
 C          1.4238086293        0.7469645938        0.0869440149
 C          1.9016551895       -0.3934500543        0.7778528949
 C          3.0994357643       -1.0297350718        0.2206100496
 C          3.6436432068       -0.5468839349       -0.9111225306
 C          4.8499249772       -1.1007718933       -1.6201686093
 C          6.1886295240       -0.6080061093       -1.0535714056
 C          6.5781190272       -1.1977582501        0.3025258781
 H          6.5135381241       -2.2853346632        0.2562112832
 H          7.6250947924       -0.9405130388        0.4747561722
 C          5.7427181720       -0.6801925410        1.4817435846
 H          5.2224714054        0.2336081463        1.1858146638
 H          6.4049404480       -0.4183989205        2.3100070005
 C          4.7181489603       -1.6790979501        2.0200172112
 H          4.1594976253       -1.1969363815        2.8262664317
 H          5.2349493488       -2.5450268105        2.4396616439
 C          3.7089842667       -2.1726990139        0.9747949289
 H          4.1889128155       -2.8692865122        0.2872970426
 H          2.9017736609       -2.6965107570        1.4933813430
 H          6.1570654260        0.4815598453       -0.9820344108
 H          6.9642293895       -0.8715439384       -1.7763182898
 H          4.7747695056       -0.7749692624       -2.6599111005
 H          4.8210160990       -2.1906318013       -1.5954573958
 O          3.1287024387        0.5229988633       -1.5708833474
 C          2.0199001090        1.2089544718       -1.0869014184
 O          1.6816152119        2.1780966243       -1.7880607588
 O          1.3504773844       -0.8560380911        1.8137771096
 C          0.1880255826        1.4453873004        0.6395297651
 C         -0.8583672965        1.5035147839       -0.4450655489
 C         -1.2743540213        2.6153528316       -1.1661780711
 C         -2.2437580227        2.4946225560       -2.1484042391
 C         -2.8374619710        1.2784491908       -2.4266961490
 C         -2.4169515784        0.1524767628       -1.7282860300
 C         -1.4324249771        0.2746485575       -0.7628920154
 H         -1.0874280336       -0.6159105689       -0.2583965520
 N         -2.9866183710       -1.1072635682       -1.9692488667
 S         -3.2235175434       -2.1452504491       -0.6790559341
 O         -1.9964410511       -2.8277691073       -0.3533142216
 O         -4.3204106110       -2.9926448596       -1.0980339555
 C         -3.7427553795       -1.0942766376        0.6667606613
 C         -4.9321141211       -0.4067986189        0.5210316628
 C         -5.3361296496        0.4565677888        1.5257245945
 C         -4.5452503755        0.6206945463        2.6528725783
 C         -3.3590437067       -0.0831469505        2.7885163343
 C         -2.9508126734       -0.9507355984        1.7874354636
 H         -2.0288280256       -1.5073093985        1.8580865774
 H         -2.7417636762        0.0428861101        3.6637217762
 H         -4.8542996421        1.2996527692        3.4317343875
 H         -6.2608125991        1.0014903387        1.4254575802
 H         -5.5239032969       -0.5648242448       -0.3658730886
 H         -3.7711126476       -1.1051633136       -2.6042213380
 H         -3.6011287170        1.1937612464       -3.1843739605
 H         -2.5453962811        3.3710174959       -2.7017666174
 H         -0.8306245627        3.5796328269       -1.0008462673
 H         -0.1980604321        0.7391815149        1.3934538845
 C          0.5907553187        2.6816849518        1.4291141678
 C          0.9951600222        3.9999829080        0.8457830531
 C         -0.2757723428        3.8867231813        1.6355852688
 H         -0.2962573763        4.3280911868        2.6210309642
 H         -1.2197187776        3.9315018450        1.1178000907
 H          1.8333858618        4.5086987034        1.3010468303
 H          0.9644650692        4.1139611405       -0.2253108926
 H          1.1718135691        2.3673463398        2.2937846876
