  62
        -98.93988469
 C         -2.2056013248       -0.1045632595       -0.0660229607
 C         -2.0825885993       -1.2137140771       -0.9391772653
 C         -1.4159832789       -2.4209914970       -0.4141024802
 C         -1.0054143965       -2.4255781795        0.8668334789
 C         -0.2568943142       -3.5052640217        1.5998503076
 C          1.2392840489       -3.5271062246        1.2398664412
 C          1.5536813845       -3.3195548345       -0.2402320905
 H          1.1256655649       -2.3737875329       -0.5815160076
 H          2.6387184987       -3.2212753913       -0.3399229420
 C          1.1030272443       -4.4472351881       -1.1669370149
 H          1.6219881434       -5.3672811580       -0.8869093120
 H          1.4215554411       -4.1791912935       -2.1779495021
 C         -0.3989525500       -4.7350054391       -1.1992010091
 H         -0.7133377628       -5.2561091132       -0.2990038447
 H         -0.5793844042       -5.4189369984       -2.0340157574
 C         -1.2807159144       -3.5141601202       -1.4450388940
 H         -0.9444881003       -3.0135853324       -2.3609296732
 H         -2.3007613291       -3.8572936158       -1.6592927300
 H          1.7334808300       -2.7248680844        1.7930037813
 H          1.6609561107       -4.4777587182        1.5701037213
 H         -0.3540920309       -3.2900738585        2.6659977346
 H         -0.7188225164       -4.4701531636        1.4133867777
 O         -1.1873907075       -1.3549321843        1.6876591851
 C         -1.7206202432       -0.1548759037        1.2412298352
 O         -1.7016438478        0.7480286176        2.0968872763
 O         -2.4939340144       -1.1921055925       -2.1314408000
 C         -2.7065231506        1.2032181468       -0.6573919792
 C         -1.6308729555        2.2404576622       -0.4489741315
 C         -1.7795736822        3.3743252781        0.3369659243
 C         -0.7114072791        4.2357688881        0.5212392400
 C          0.5189639320        3.9786750825       -0.0554636401
 C          0.6777209964        2.8469250579       -0.8491137659
 C         -0.4014962827        2.0028596872       -1.0536292708
 H         -0.2765794655        1.1271084020       -1.6748606171
 N          1.9114240177        2.5644749829       -1.4633320555
 S          2.5868014490        1.0362876040       -1.4276150408
 O          3.8857552064        1.2046533933       -2.0411053154
 O          1.7033025294        0.0851067068       -2.0508685672
 C          2.7951925331        0.6467041822        0.2983761361
 C          1.6849927307        0.2738844883        1.0271105196
 C          1.8224243929        0.0163296213        2.3813078490
 C          3.0682891456        0.1271004475        2.9796418120
 C          4.1772749023        0.4973492370        2.2331401065
 C          4.0416897406        0.7677110304        0.8808914986
 H          4.8749136484        1.0592006345        0.2621801849
 H          5.1445373497        0.5797063522        2.7021708335
 H          3.1723662707       -0.0776871042        4.0335533480
 H          0.9474922244       -0.2581850698        2.9502013013
 H          0.7294927809        0.1918794268        0.5336373289
 H          2.6251682449        3.2590555860       -1.2947518142
 H          1.3524322135        4.6456330360        0.1049223484
 H         -0.8347683381        5.1127533155        1.1382407404
 H         -2.7218500618        3.5683820721        0.8222206393
 H         -2.7671497605        0.9975364541       -1.7397560504
 C         -4.0951205978        1.6479172695       -0.2325925919
 C         -5.1438702617        0.6376216720        0.1237780725
 C         -4.6029597545        1.5585353310        1.1739228981
 H         -5.2430892973        2.3523731410        1.5310297165
 H         -3.9418847625        1.1581444781        1.9247167502
 H         -6.1514522086        0.7908046585       -0.2327820140
 H         -4.8423886114       -0.3998440626        0.1512803499
 H         -4.4312568710        2.5025702625       -0.8128259350
