  62
        -98.94227166
 C         -1.6344902805       -0.9641251764        0.3471142433
 C         -2.8014058237       -1.1566401592       -0.4321547730
 C         -4.0489959591       -0.6204594724        0.1355871366
 C         -4.0261284218       -0.0021824460        1.3293000364
 C         -5.2115486954        0.6394087182        1.9892071959
 C         -5.3321527917        2.1195217074        1.6003791775
 C         -5.2382949089        2.3734266910        0.0957383747
 H         -5.3683936318        3.4465446775       -0.0610075146
 H         -4.2319171609        2.1198803319       -0.2462445991
 C         -6.2684162969        1.6048494388       -0.7437421954
 H         -7.0844678081        1.2631137076       -0.1060372343
 H         -6.6969760519        2.2867449247       -1.4812407562
 C         -5.6958804801        0.4150161385       -1.5161300452
 H         -6.4487948738        0.0838183363       -2.2362552698
 H         -4.8183721983        0.7353088962       -2.0834693365
 C         -5.3047521722       -0.8031029020       -0.6701629918
 H         -6.1385165838       -1.0861869472       -0.0247071718
 H         -5.1028022707       -1.6314225434       -1.3553454433
 H         -6.2841058916        2.4987358797        1.9766092422
 H         -4.5280427863        2.6732271342        2.0910757376
 H         -6.1143799262        0.1033505769        1.7029610276
 H         -5.0838924280        0.5667676566        3.0706529909
 O         -2.8915819366        0.1464854531        2.0601758689
 C         -1.6779896844       -0.3227916261        1.5894654473
 O         -0.7209783947       -0.1253558421        2.3662656942
 O         -2.8282634617       -1.7470207522       -1.5437530350
 C         -0.2564216188       -1.4336452144       -0.0915735449
 C          0.3398764102       -0.4960175023       -1.1149988417
 C         -0.1440264241       -0.4162163715       -2.4163537798
 C          0.4432345831        0.4465927121       -3.3239693487
 C          1.5276193658        1.2265951731       -2.9632707671
 C          2.0197705498        1.1540470246       -1.6641869432
 C          1.4163031638        0.3005200569       -0.7509389754
 H          1.7679579505        0.2773050480        0.2680002191
 N          3.1439240214        1.8924945438       -1.2944405888
 S          3.7391523069        2.0222181557        0.2503253967
 O          2.7243226460        2.4304469371        1.1926118586
 O          4.8660651071        2.9192439473        0.1075808726
 C          4.3291957629        0.3833536772        0.6227620493
 C          3.8828441987       -0.2700516856        1.7539145937
 C          4.3444405002       -1.5509775126        2.0141116320
 C          5.2416643883       -2.1516489056        1.1444709981
 C          5.6862338047       -1.4788559983        0.0162537711
 C          5.2272330188       -0.1990257364       -0.2498426680
 H          5.5510144109        0.3554818645       -1.1147841593
 H          6.3846373713       -1.9494579577       -0.6567393095
 H          5.5938708942       -3.1505154444        1.3485280677
 H          3.9959235282       -2.0739827298        2.8906379060
 H          3.1739130973        0.2252772858        2.4004601341
 H          3.4950318843        2.5684159548       -1.9527269589
 H          1.9898373236        1.8899460050       -3.6780309897
 H          0.0548690906        0.5087528177       -4.3294573841
 H         -0.9944582743       -1.0158331798       -2.7002598939
 H          0.3693890260       -1.3747748116        0.8093159369
 C         -0.2343102787       -2.8659431756       -0.5897074078
 C          1.0807750100       -3.5822333069       -0.6387707140
 C          0.0517261669       -3.9714285487        0.3789311378
 H         -0.4685500236       -4.9095320262        0.2566787514
 H          0.2239850782       -3.6992696337        1.4103065329
 H          1.2702972277       -4.2547714443       -1.4608405518
 H          1.9529476947       -3.0435878336       -0.2980880649
 H         -0.9511956110       -3.0636233094       -1.3749467459
