  62
        -98.94033517
 C          1.7860178482        0.6720510080        0.9322827375
 C          2.0256447804        0.3046612601       -0.4150720841
 C          3.4204153702        0.4228720539       -0.8711854489
 C          4.3640024180        0.8608861696       -0.0191870032
 C          5.8257624552        0.9754220178       -0.3390279936
 C          6.5755463770       -0.3132491941        0.0268202594
 C          5.9111454005       -1.5853547569       -0.4999687985
 H          6.5431806349       -2.4268675313       -0.2077576545
 H          4.9486502424       -1.7187193308       -0.0005105409
 C          5.6990012695       -1.6087914836       -2.0201303032
 H          6.3399762290       -0.8649607285       -2.4948502681
 H          6.0014421088       -2.5869331418       -2.4001303722
 C          4.2513227487       -1.3872868152       -2.4627538314
 H          4.1786155976       -1.6404074924       -3.5238275768
 H          3.5922879327       -2.0687398387       -1.9185161038
 C          3.7123634251        0.0388943726       -2.2944824688
 H          2.7560131533        0.0955368228       -2.8223636407
 H          4.4021702012        0.7501609459       -2.7531442585
 H          7.5927253223       -0.2435827810       -0.3629310962
 H          6.6331628008       -0.3830969659        1.1156276221
 H          5.9454292487        1.1896781472       -1.3991934778
 H          6.2408544396        1.8027425409        0.2391451062
 O          4.0962431630        1.2031242739        1.2673272632
 C          2.8136537932        1.0943785225        1.7793284735
 O          2.7179428425        1.3942314181        2.9863445444
 O          1.1354472269       -0.1019606526       -1.2044686473
 C          0.4031880491        0.5618733195        1.5511319031
 C         -0.2366594618       -0.7483682199        1.1618377593
 C          0.4478124854       -1.9319389884        1.4300223179
 C         -0.0923085645       -3.1550429738        1.0871064891
 C         -1.3421381903       -3.2283561085        0.4960322485
 C         -2.0390327113       -2.0562433001        0.2370605184
 C         -1.4822205586       -0.8267106473        0.5616162324
 H         -2.0301023050        0.0689042815        0.3240921568
 N         -3.3083005316       -2.0850536805       -0.3615564155
 S         -4.5111250623       -1.0945949182        0.2495130378
 O         -4.3604557509       -0.8954026946        1.6726952365
 O         -5.7481421994       -1.7147880600       -0.1764384032
 C         -4.3251688611        0.4539119900       -0.6084237329
 C         -4.4063245632        1.6329104010        0.1057833741
 C         -4.3060604035        2.8372634159       -0.5730245395
 C         -4.1282560807        2.8407486343       -1.9481885529
 C         -4.0495776395        1.6476686637       -2.6505551411
 C         -4.1522445447        0.4405652103       -1.9781422964
 H         -4.0965785569       -0.5045755872       -2.4914660022
 H         -3.9075357623        1.6553354723       -3.7191928655
 H         -4.0473713038        3.7789173905       -2.4743715201
 H         -4.3648460308        3.7658227273       -0.0274016080
 H         -4.5354087307        1.5832718556        1.1754444428
 H         -3.6583127797       -3.0084785345       -0.5717424340
 H         -1.7701300859       -4.1841775055        0.2334776165
 H          0.4577801339       -4.0620541060        1.2896742100
 H          1.4203312745       -1.8762567335        1.9016826944
 H          0.5802470484        0.5321176514        2.6398300565
 C         -0.4921859408        1.7646170805        1.2912774888
 C          0.0879551511        3.1252198685        1.0492152368
 C         -0.6022458869        2.3966981631       -0.0625965151
 H         -1.5707068629        2.7492041976       -0.3859526787
 H         -0.0035437352        1.9770028917       -0.8548311260
 H         -0.4053832305        3.9761707840        1.4942170295
 H          1.1643551050        3.2130053660        1.0179434944
 H         -1.3977563055        1.7298965251        1.8904738803
