  62
        -98.94398198
 C          1.6808544832        1.3243480284        0.3192611151
 C          1.3622360844        0.2682224806       -0.5626672906
 C          1.9505267862       -1.0462641583       -0.2604772645
 C          2.7226156765       -1.1875899691        0.8326669177
 C          3.3909443549       -2.4103828406        1.4258600883
 C          3.5739227293       -3.6809583268        0.5994438172
 C          4.5285186307       -3.5445616556       -0.5856933472
 H          5.5405931063       -3.3933596724       -0.2021107920
 H          4.5189215882       -4.4863183148       -1.1388143807
 C          4.2214082832       -2.3999162606       -1.5477605548
 H          4.9606454939       -2.4329613988       -2.3525997589
 H          4.3476837144       -1.4451337242       -1.0332809307
 C          2.8344140471       -2.4393813587       -2.1867117911
 H          2.6722270641       -3.4129111313       -2.6528634375
 H          2.8163523551       -1.6826106533       -2.9750860614
 C          1.6563906782       -2.1457635560       -1.2394143940
 H          0.8132224027       -1.7999569252       -1.8443455128
 H          1.3284969584       -3.0406997249       -0.7145976378
 H          3.9910489511       -4.4321560941        1.2759742706
 H          2.6090440785       -4.0556968786        0.2703349081
 H          4.3686325192       -2.0712371020        1.7835403857
 H          2.8043080253       -2.6599562181        2.3176864363
 O          2.9883131694       -0.1403096806        1.6685773788
 C          2.4737061430        1.1239251779        1.4451946490
 O          2.7917399265        1.9714005152        2.3062262200
 H         -0.4791409014        1.1817409057        1.6375576974
 C         -1.0610082479        1.7419689737        0.9197344984
 C         -0.4230806539        2.5950967575        0.0281979239
 C         -1.2011104097        3.3116456051       -0.8728764444
 C         -2.5759751388        3.1510899548       -0.8962400383
 C         -3.2001294994        2.2600631998       -0.0423577660
 C         -2.4311450670        1.5475861650        0.8702219303
 N         -3.0100532973        0.6077436151        1.7500367880
 S         -2.5478527410       -0.9927306716        1.5528188118
 O         -3.3403864425       -1.7312085901        2.5134701898
 O         -1.1184677738       -1.1155388588        1.6768265271
 C         -3.0918148838       -1.4030110606       -0.0964682024
 C         -2.3467870494       -0.9859858754       -1.1811302984
 C         -2.8258659772       -1.2469627999       -2.4563126357
 C         -4.0308621850       -1.9106827812       -2.6252977300
 C         -4.7671824907       -2.3216431833       -1.5240663199
 C         -4.2977556605       -2.0614938762       -0.2471054120
 H         -4.8329460418       -2.3635414416        0.6387433598
 H         -5.7035129551       -2.8395096568       -1.6561243542
 H         -4.3967175581       -2.1085318558       -3.6205188673
 H         -2.2468069746       -0.9226489878       -3.3061863496
 H         -1.4088484221       -0.4737006369       -1.0311553319
 H         -4.0199276906        0.6534181529        1.7824481135
 H         -4.2691785361        2.1138087454       -0.0791541036
 H         -3.1669814186        3.7134025694       -1.6027916031
 H         -0.7290372154        3.9915448692       -1.5631305236
 C          1.0820209364        2.7004235216        0.0938542859
 H          1.3493853463        3.2987729249        0.9776684105
 C          1.6910920611        3.3424992000       -1.1363051066
 C          1.8561294496        4.8298424793       -1.2147464211
 C          3.0559681245        3.9512473758       -1.0314161438
 H          3.7406595530        3.8294383720       -1.8572537016
 H          3.5334256587        3.9276024343       -0.0622747162
 H          1.5261523614        5.4156507095       -0.3701200635
 H          1.7210928007        5.3143773183       -2.1700019027
 H          1.4526345708        2.8028311504       -2.0456046522
 O          0.6052929557        0.4127441566       -1.5595223097
