  62
        -98.94339416
 C         -1.5317071507       -1.5505853496       -0.2218413481
 C         -1.3724183504       -0.1455933697       -0.3241606195
 C         -2.6110776003        0.6237258604       -0.5311390100
 C         -3.7888961104       -0.0194226994       -0.6097218293
 C         -5.1238208403        0.6492592707       -0.7618359297
 C         -5.7557676501        0.9419791021        0.6063152101
 C         -4.8100805898        1.6329068628        1.5890482093
 H         -5.3728707796        1.8142278738        2.5074503193
 H         -3.9962208899        0.9491725529        1.8414312399
 C         -4.2202924496        2.9558079322        1.0804782881
 H         -4.2807353793        3.6955835330        1.8815396874
 H         -4.8173253096        3.3307855416        0.2483436478
 C         -2.7523776896        2.8754096315        0.6564781279
 H         -2.3820965094        3.8953109813        0.5249497270
 H         -2.1647145896        2.4131779921        1.4535188183
 C         -2.4748490600        2.1156583903       -0.6464808614
 H         -3.1148109900        2.5017523997       -1.4423694817
 H         -1.4308904200        2.2961696098       -0.9180247617
 H         -6.0773566202       -0.0039990574        1.0484595710
 H         -6.6408164299        1.5621318422        0.4524460896
 H         -4.9995440702        1.5741711402       -1.3215775206
 H         -5.7822306605       -0.0177510796       -1.3210106990
 O         -3.9024941407       -1.3687045793       -0.5024876780
 C         -2.7868657709       -2.1608077193       -0.2834788274
 O         -3.0403213811       -3.3759486392       -0.1580255863
 H          2.2261733793       -1.4699381504       -0.2136459887
 C          1.8259784395       -1.3904321194        0.7824027313
 C          0.5530887694       -1.8547096688        1.0707808819
 C          0.0714950896       -1.7238874675        2.3707642618
 C          0.8421696498       -1.1332924068        3.3532785312
 C          2.1057560199       -0.6529687373        3.0576302706
 C          2.5959202197       -0.7821564986        1.7636061406
 N          3.8768874098       -0.3157712892        1.4406297300
 S          4.2518407697        0.2508336893       -0.0814584605
 O          4.3498841393       -0.8475919716       -1.0112318695
 O          5.4758060699        0.9998926192        0.1238275786
 C          2.9664953699        1.3803899491       -0.5823946014
 C          2.5581162302        2.3606388400        0.2981122577
 C          1.6168843304        3.2854348898       -0.1199356630
 C          1.1081514702        3.2201081188       -1.4070126129
 C          1.5253789099        2.2271611879       -2.2776039820
 C          2.4632586197        1.2969063981       -1.8626530613
 H          2.8081809094        0.5036347074       -2.5066624506
 H          1.1178834597        2.1682916471       -3.2749078419
 H          0.3781679103        3.9453822186       -1.7327699234
 H          1.2781510106        4.0512751305        0.5595949063
 H          2.9730982804        2.3935684808        1.2926212877
 H          4.3427704200        0.2093596013        2.1650963895
 H          2.7068381501       -0.1813292568        3.8201353801
 H          0.4539646400       -1.0363240558        4.3561766911
 H         -0.9239667705       -2.0829134671        2.5967055723
 C         -0.3441731409       -2.4664160896        0.0242979525
 H         -0.7747298810       -3.3918787691        0.4414704934
 C          0.4046702289       -2.8651205709       -1.2382642872
 C         -0.3140638613       -3.0387189820       -2.5417926869
 C          0.6503513789       -1.9066891520       -2.3628153681
 H          1.6028905189       -1.9563097227       -2.8711522382
 H          0.2606659192       -0.9061010518       -2.2612468390
 H         -0.0307999416       -3.8640326026       -3.1776673162
 H         -1.3705838213       -2.8138464317       -2.5632795670
 H          1.1974290287       -3.5777542409       -1.0288191866
 O         -0.2688401703        0.4494038501       -0.2473100001
