  62
        -98.94125211
 C         -2.3279705062       -0.9199717948       -0.4388374366
 C         -3.2392617121       -0.2469323761        0.4167364021
 C         -3.5809108966        1.1316180399        0.0567124926
 C         -3.0311210523        1.6857863110       -1.0384813593
 C         -3.2841368934        3.0788094157       -1.5487264723
 C         -2.4312448299        4.1556503907       -0.8641576007
 C         -2.8397203236        4.4935727922        0.5703669570
 H         -2.3146316081        5.4105798230        0.8447018916
 H         -3.9085798705        4.7073781226        0.6016592643
 C         -2.4995604819        3.4049538768        1.5980253597
 H         -1.7597353331        2.7207665390        1.1739183367
 H         -2.0400222952        3.8644471615        2.4761633851
 C         -3.7015396795        2.5967781949        2.0873783038
 H         -3.3394542954        1.8295881584        2.7764206922
 H         -4.3832978308        3.2503696071        2.6361343234
 C         -4.4885123038        1.8969230736        0.9721840852
 H         -5.1730464896        1.1809049027        1.4334635255
 H         -5.0701226904        2.6249452653        0.4071321676
 H         -1.3866914225        3.8340347111       -0.8800622131
 H         -2.5094789397        5.0642315953       -1.4659333503
 H         -3.0382646838        3.0689552834       -2.6127848257
 H         -4.3410461821        3.3234016742       -1.4373141070
 O         -2.1743237476        1.0069455171       -1.8446194193
 C         -1.7832322682       -0.2969247197       -1.5625541179
 O         -0.9852422476       -0.7612709775       -2.4006580520
 O         -3.7559274353       -0.7849136622        1.4331538322
 C         -1.9534658086       -2.3353774589       -0.0324576548
 C         -0.7150700525       -2.3157683157        0.8327896249
 C         -0.7580474175       -2.7942892441        2.1372107591
 C          0.3677975422       -2.7535711092        2.9400644727
 C          1.5513271701       -2.2254384508        2.4595860765
 C          1.6061812540       -1.7478558907        1.1537983124
 C          0.4804125516       -1.8047304029        0.3454690727
 H          0.5364786972       -1.4212273447       -0.6623068024
 N          2.8037395041       -1.2273860447        0.6387708573
 S          2.7298180906        0.0527126371       -0.4619613657
 O          1.7271219169        1.0082700820       -0.0457277813
 O          2.6165078327       -0.4863468384       -1.7924219117
 C          4.3650768689        0.7339955067       -0.2442832836
 C          4.5435266157        1.8516422474        0.5482587989
 C          5.8261795530        2.3439424627        0.7345474856
 C          6.9029842156        1.7109444542        0.1324200353
 C          6.7084569333        0.5898682417       -0.6610691706
 C          5.4287533064        0.0942932831       -0.8531339287
 H          5.2257382101       -0.7667565840       -1.4683323727
 H          7.5473798066        0.1015327125       -1.1299521127
 H          7.8997739066        2.0953222400        0.2800322313
 H          5.9797029851        3.2172738644        1.3476923344
 H          3.6753346050        2.3130774591        0.9910378828
 H          3.5004488524       -1.0640424383        1.3530760648
 H          2.4284636349       -2.1802068622        3.0871005692
 H          0.3198571915       -3.1249251569        3.9524154984
 H         -1.6891900117       -3.1798668148        2.5253820776
 H         -2.7881286866       -2.6838014452        0.5923575904
 C         -1.7868315344       -3.3018553267       -1.1868428783
 C         -1.9719954090       -4.7675852317       -0.9357633717
 C         -2.9901441180       -4.0084836866       -1.7315105050
 H         -3.0480087620       -4.1750825675       -2.7965242691
 H         -3.9438823562       -3.7963515147       -1.2705370447
 H         -1.3280950343       -5.4618293831       -1.4532180424
 H         -2.2384115209       -5.0742201183        0.0643449042
 H         -1.0236030616       -3.0026150600       -1.8934391393
