  62
        -98.94633332
 C         -1.7778068446       -0.7569887613        0.2075126641
 C         -3.0673718723       -0.9856800911        0.7443062717
 C         -3.9794363919        0.1657309042        0.7358309091
 C         -3.5458986690        1.3447239040        0.2530471249
 C         -4.3851573278        2.5832991661        0.1362544392
 C         -5.0771676132        2.6581561544       -1.2319900620
 C         -5.7992282379        1.3709048945       -1.6302229881
 H         -5.0612952830        0.5791368622       -1.7791267144
 H         -6.2755309647        1.5507558494       -2.5965141004
 C         -6.8540656912        0.8964253391       -0.6209009075
 H         -7.7543817715        0.6054764465       -1.1662020803
 H         -7.1286230629        1.7177256758        0.0420396609
 C         -6.4315746785       -0.3116476441        0.2172328954
 H         -6.0676816517       -1.1046679320       -0.4410667301
 H         -7.3168195535       -0.6947808634        0.7318359048
 C         -5.3630063279       -0.0426939337        1.2843101386
 H         -5.3016229810       -0.9287299349        1.9230731307
 H         -5.6653626007        0.8054379626        1.9019173396
 H         -4.3219818100        2.8752332943       -1.9909864404
 H         -5.7886953204        3.4857002146       -1.2142138411
 H         -5.1282041774        2.5891301551        0.9312714742
 H         -3.7348134457        3.4518351844        0.2520321960
 O         -2.2919137700        1.5320102845       -0.2317036561
 C         -1.3800739960        0.4879345110       -0.2776945447
 O         -0.2732009861        0.7950525844       -0.7577629951
 H          1.8710670099       -1.9111964906       -0.6464869856
 C          1.7274769403       -1.6102248289        0.3772107619
 C          0.4588249521       -1.5485400949        0.9307845821
 C          0.3298603555       -1.1497253766        2.2598970828
 C          1.4393364784       -0.8115946912        3.0088795799
 C          2.7036482026       -0.8558705181        2.4459845227
 C          2.8445763089       -1.2569161508        1.1241127070
 N          4.1188299426       -1.3380410642        0.5295352854
 S          4.4379851340       -0.4604100451       -0.8611540792
 O          3.5558500485       -0.8767421529       -1.9190400000
 O          5.8529537070       -0.6528179763       -1.0961233206
 C          4.1415584314        1.2364696927       -0.3975895917
 C          2.8467986307        1.7111546025       -0.3390123393
 C          2.6367376345        3.0126056938        0.0919995072
 C          3.7107538760        3.8098674346        0.4546667983
 C          5.0052234051        3.3158272667        0.3893550949
 C          5.2240568305        2.0159526257       -0.0353880753
 H          6.2123585594        1.5908959489       -0.1061176869
 H          5.8403206275        3.9376250080        0.6692751600
 H          3.5369886930        4.8208788944        0.7884121152
 H          1.6254053510        3.3847269756        0.1388918058
 H          2.0171185177        1.0844008975       -0.6260375495
 H          4.8780499055       -1.2037522093        1.1832939564
 H          3.5730727789       -0.5868668083        3.0266476315
 H          1.3211488169       -0.5054188795        4.0372739020
 H         -0.6590131566       -1.1091845943        2.6963479237
 C         -0.7871580128       -1.9062148427        0.1599394818
 H         -1.2828803614       -2.7401307825        0.6791298240
 C         -0.5218017566       -2.3177436794       -1.2726050810
 C         -0.1060305306       -3.7227830299       -1.5861040542
 C         -1.4797915821       -3.2483312131       -1.9512704627
 H         -1.7101751488       -3.0824131500       -2.9930887581
 H         -2.3166461343       -3.6084279092       -1.3704807684
 H         -0.0104302317       -4.4115273912       -0.7602942155
 H          0.6121686482       -3.8809423503       -2.3767185906
 H         -0.0971775954       -1.5179717487       -1.8702254460
 O         -3.4346713458       -2.0966627002        1.2127908803
