  62
        -98.93716000
 C         -2.5790569026       -1.3140679602       -0.2133930856
 C         -2.1491750553       -0.0610915137       -0.7190844707
 C         -3.2059714795        0.9451475920       -0.9207201052
 C         -4.4836300012        0.6359669519       -0.6392636095
 C         -5.6441718490        1.5805315575       -0.7520932665
 C         -5.8881516407        2.3179829237        0.5718967387
 C         -4.6270590806        2.9358058188        1.1764059191
 H         -3.9427692161        2.1369973980        1.4726475136
 H         -4.9251286063        3.4561968703        2.0892377376
 C         -3.8909957640        3.9127808470        0.2489282384
 H         -3.6132926013        4.7987736943        0.8238089545
 H         -4.5585524971        4.2402143455       -0.5490211784
 C         -2.6026705920        3.3598365324       -0.3639103514
 H         -1.9664158924        2.9477395496        0.4244186318
 H         -2.0580320090        4.1925350596       -0.8173443450
 C         -2.7841121183        2.2883546981       -1.4464813608
 H         -1.8114912429        2.1329141457       -1.9225996756
 H         -3.4854559857        2.6451454645       -2.2036099016
 H         -6.3001638089        1.6082771156        1.2930035123
 H         -6.6313875579        3.0987162658        0.4006725083
 H         -5.4483876279        2.2960626227       -1.5481783398
 H         -6.5346670282        1.0026030700       -1.0049675806
 O         -4.8594685023       -0.5779937956       -0.1628255196
 C         -3.9216937147       -1.5651119726        0.0870561132
 O         -4.4013194403       -2.6109102206        0.5684070813
 H          0.9569419909       -1.8470202203       -0.6639848248
 C          0.7822623199       -1.6417253089        0.3806171213
 C         -0.4647532104       -1.8936301065        0.9273756617
 C         -0.6833561904       -1.5817528092        2.2659117061
 C          0.3254779506       -1.0353484017        3.0366596378
 C          1.5709838265       -0.7850024368        2.4878422247
 C          1.7942017172       -1.0808204107        1.1502109738
 N          3.0571028494       -0.8368597738        0.5787150748
 S          3.8624442500        0.5796313743        1.0231383984
 O          4.5131371611        0.3509217833        2.2904057064
 O          2.9700768811        1.7156329294        0.9723814204
 C          5.0852522441        0.6847175438       -0.2689376978
 C          6.3101525384        0.0715835176       -0.0876145240
 C          7.2462147565        0.1312173055       -1.1078697904
 C          6.9427736937        0.7973821747       -2.2857901192
 C          5.7090010503        1.4086692077       -2.4529342300
 C          4.7680254066        1.3523589640       -1.4368893923
 H          3.7996166704        1.8202789910       -1.5208006423
 H          5.4763575457        1.9278612641       -3.3688313587
 H          7.6726770477        0.8434290049       -3.0785174408
 H          8.2072662803       -0.3404523356       -0.9813247634
 H          6.5026917717       -0.4273381648        0.8477336282
 H          3.0322439047       -0.9298688334       -0.4279545148
 H          2.3630809455       -0.3460369546        3.0730102090
 H          0.1417798572       -0.7960760939        4.0737027427
 H         -1.6614613615       -1.7621833201        2.6919442214
 C         -1.6073183985       -2.4390296237        0.1078703576
 H         -2.1796194945       -3.1299753539        0.7474423584
 C         -1.1480732484       -3.2485240127       -1.0955674559
 C         -2.1126601732       -3.5878380978       -2.1917279158
 C         -0.9667102670       -2.6620419872       -2.4618418161
 H         -0.1490260729       -3.0269556405       -3.0666057045
 H         -1.1714890329       -1.6116907264       -2.5934204313
 H         -3.1058300081       -3.1676120618       -2.1246547758
 H         -2.0859732906       -4.5812942938       -2.6132301967
 H         -0.4520845429       -4.0304702028       -0.8065298528
 O         -0.9562304932        0.2206278894       -1.0031365533
