  62
        -98.94177178
 C         -2.6343682797       -0.1156664998       -0.2316162689
 C         -2.1608892595       -0.9050761600        0.8453747008
 C         -1.7627708295       -2.2813354099        0.5086724305
 C         -1.8342010497       -2.7029624897       -0.7656949496
 C         -1.4153248798       -4.0601594396       -1.2508218399
 C          0.0519200302       -4.0702090194       -1.6993739302
 C          1.0197848303       -3.4629820096       -0.6828127602
 H          2.0282203902       -3.5795336495       -1.0876258104
 H          0.8379719903       -2.3881055996       -0.6031312500
 C          0.9557045606       -4.0956879499        0.7140971497
 H          1.9757692207       -4.2495954799        1.0726835794
 H          0.4784165106       -5.0755173499        0.6566390496
 C          0.2431540008       -3.2432295701        1.7660213599
 H          0.4584965409       -3.6689700803        2.7505930698
 H          0.6530871307       -2.2296138001        1.7533530101
 C         -1.2828350093       -3.1549426501        1.6335245602
 H         -1.7032374893       -4.1596426801        1.5446489401
 H         -1.6678243291       -2.7002000903        2.5512978504
 H          0.3402793302       -5.1032227394       -1.9050162604
 H          0.1346093900       -3.5001208893       -2.6275572501
 H         -2.0463867199       -4.3281257194       -2.1002633498
 H         -1.5671071696       -4.7860411397       -0.4540889400
 O         -2.2813517799       -1.9158012495       -1.7771418193
 C         -2.6714485999       -0.6116393596       -1.5380326890
 O         -3.0508900402        0.0021226206       -2.5571880889
 O         -2.0713559993       -0.5077768502        2.0391213109
 C         -3.0471764698        1.3416113201       -0.0977896986
 C         -1.8464174398        2.2451267302       -0.2617032686
 C         -1.9283179500        3.4299966303       -0.9830403784
 C         -0.8138985701        4.2324171604       -1.1582807985
 C          0.4142654701        3.8521785304       -0.6469397688
 C          0.5033848302        2.6724947402        0.0795682610
 C         -0.6236453397        1.8978910202        0.2944392911
 H         -0.5280793196        0.9953370301        0.8796154209
 N          1.7740003903        2.2159258702        0.5334863507
 S          2.0415563504        0.5608291702        0.4359512103
 O          1.3580058902        0.0529799704       -0.7274633396
 O          1.7792115706       -0.0861160900        1.7049990803
 C          3.7993931203        0.5554787404        0.1355631900
 C          4.6731199205        0.1062331802        1.1056103398
 C          6.0355711605        0.1410384903        0.8502278895
 C          6.4979623402        0.6252193105       -0.3634934405
 C          5.6078786900        1.0729609007       -1.3289380102
 C          4.2457242401        1.0391328406       -1.0792869800
 H          3.5151331099        1.3695130607       -1.7996481498
 H          5.9705282298        1.4475292009       -2.2726667302
 H          7.5581842502        0.6527893106       -0.5597563207
 H          6.7289783906       -0.2084567798        1.5982347393
 H          4.2672555607       -0.2647704500        2.0330471498
 H          2.0472855805        2.5741695400        1.4372647207
 H          1.2974292000        4.4483447604       -0.8091850688
 H         -0.8978841002        5.1489547105       -1.7218438483
 H         -2.8716944501        3.7119911204       -1.4266116682
 H         -3.7256501199        1.5403612803       -0.9398107784
 C         -3.7789279995        1.6653501299        1.1904486416
 C         -4.7508872996        2.8049938598        1.2174420320
 C         -5.2486304695        1.3932580798        1.2886820018
 H         -5.6403181793        1.0246360496        2.2245014218
 H         -5.7369185597        0.9794442099        0.4181827418
 H         -4.8020149894        3.4135448297        2.1070334421
 H         -4.9141327198        3.3501508800        0.3005035121
 H         -3.1814436994        1.4885347897        2.0752223315
