  62
        -98.94473009
 C          1.5111370423        1.7647844496       -0.4647663509
 C          1.5413861838        0.5904541874       -1.2580638244
 C          2.7507070390       -0.2405377395       -1.1295579678
 C          3.7292289291        0.1311856470       -0.2868042885
 C          4.9858039237       -0.6469479942       -0.0264603415
 C          4.8123814797       -1.6135300804        1.1526939797
 C          3.5593931474       -2.4855337034        1.0640708579
 H          3.5709498956       -3.1599298758        1.9236610837
 H          2.6682329514       -1.8609822120        1.1662935626
 C          3.4445674294       -3.3071985314       -0.2271597103
 H          3.1330956480       -4.3211640244        0.0328376150
 H          4.4195502458       -3.3794061030       -0.7120684373
 C          2.4144291783       -2.7682224637       -1.2214968554
 H          1.4722670884       -2.5881566464       -0.6970241921
 H          2.2306549243       -3.5402634136       -1.9742479432
 C          2.8168526476       -1.4878257869       -1.9651988764
 H          3.8132507885       -1.6103745526       -2.3962127720
 H          2.1042491085       -1.3406054102       -2.7822246777
 H          5.6963811007       -2.2521038234        1.2067018798
 H          4.7576531530       -1.0299635093        2.0747548940
 H          5.2571746959       -1.1988312173       -0.9244167822
 H          5.7833742670        0.0597692442        0.2102065374
 O          3.6659838285        1.2625168462        0.4622464429
 C          2.5574234447        2.0890937618        0.4025381297
 O          2.6230959873        3.0854411097        1.1522137623
 H         -0.4185569007        0.2562288705        0.3573162357
 C         -0.9141500719        1.0269277067        0.9225795902
 C         -0.6352025305        2.3594500594        0.6578825685
 C         -1.2614767203        3.3374535486        1.4223465959
 C         -2.1527058076        2.9830587615        2.4197156556
 C         -2.4274477025        1.6531042264        2.6805592875
 C         -1.7908841993        0.6650320818        1.9350383784
 N         -2.0048015589       -0.6838535400        2.2246693837
 S         -1.6951011460       -1.9490597432        1.1847494963
 O         -2.1978830225       -3.1019527868        1.9023739186
 O         -0.2998655963       -1.9835999378        0.8315398938
 C         -2.7355525765       -1.6621388721       -0.2341174903
 C         -2.2172396810       -1.2189693396       -1.4326515418
 C         -3.0862730834       -1.0083250162       -2.4938933459
 C         -4.4440468604       -1.2344090775       -2.3404312089
 C         -4.9486762740       -1.6793305657       -1.1270328051
 C         -4.0881077155       -1.8968524084       -0.0651765670
 H         -4.4351536902       -2.2634810490        0.8871876297
 H         -6.0052688215       -1.8578263027       -1.0083908438
 H         -5.1117677065       -1.0650801934       -3.1704410534
 H         -2.6862453588       -0.6637005126       -3.4338641610
 H         -1.1599397353       -1.0301845318       -1.5376999436
 H         -2.7301070308       -0.8879621395        2.8935397389
 H         -3.1115572264        1.3765291233        3.4679324536
 H         -2.6339957748        3.7505963557        3.0065321673
 H         -1.0290867630        4.3775951761        1.2474144428
 C          0.3376050991        2.7308441532       -0.4348857127
 H          0.7711792738        3.7076542150       -0.1645118415
 C         -0.3410516574        2.8947198932       -1.7882960478
 C         -1.6879979297        2.3247286868       -2.1028850866
 C         -1.5244077330        3.8042257614       -1.9414820732
 H         -1.5789955036        4.4304156682       -2.8190786210
 H         -1.9292669311        4.2566421506       -1.0496333917
 H         -2.2007699276        1.7765335137       -1.3273680018
 H         -1.8405228768        1.9212741171       -3.0914203006
 H          0.3800875981        2.8984701909       -2.5988480756
 O          0.6273064604        0.2378274312       -2.0457724535
