  62
        -98.94070441
 C          1.7679201278        0.4804792248       -0.4029368953
 C          2.9483129682        0.6031493008       -1.1794436656
 C          4.2136073363        0.5994609437       -0.4374327238
 C          4.1964663953        0.5447215866        0.9064550399
 C          5.4007545342        0.5616372197        1.8083370718
 C          6.0548213654       -0.8131511375        2.0034683107
 C          6.8250346320       -1.3452649704        0.7942151068
 H          7.5304357594       -0.5874572586        0.4518319325
 H          7.4087621369       -2.2016369207        1.1376157231
 C          5.9369574543       -1.7909383090       -0.3759899741
 H          4.9115911068       -1.9253322980       -0.0236182808
 H          6.2779674081       -2.7612970183       -0.7437672831
 C          5.9297003985       -0.8320289051       -1.5666812734
 H          5.2413656635       -1.2245661188       -2.3197584010
 H          6.9265674795       -0.7919834324       -2.0112081225
 C          5.4903726678        0.5972070764       -1.2223490337
 H          6.2779765915        1.1109430272       -0.6714537530
 H          5.3072795305        1.1348473767       -2.1560164924
 H          6.7510899320       -0.7261186588        2.8407542327
 H          5.2816038527       -1.5306196118        2.2875962968
 H          6.1384189134        1.2651061502        1.4209011799
 H          5.0554132474        0.9199257433        2.7804958480
 O          3.0412812096        0.4909200704        1.6193619436
 C          1.8013833819        0.4414071970        0.9920300464
 O          0.8422328490        0.3751382629        1.7820542348
 O          2.9427418053        0.7198061162       -2.4340141973
 C          0.4423356261        0.4633877605       -1.1414186628
 C         -0.5368963774        1.4119046146       -0.4972776440
 C         -0.1605959197        2.7408866870       -0.3139492946
 C         -1.0192985328        3.6443504060        0.2786793338
 C         -2.2863981373        3.2512010447        0.6748729444
 C         -2.6773080586        1.9335245221        0.4837153911
 C         -1.8018127775        1.0217011129       -0.0902576062
 H         -2.1193820485       -0.0009538278       -0.2007658801
 N         -3.9543831762        1.4918016198        0.8662105330
 S         -4.8264239322        0.5516409740       -0.2110216229
 O         -4.5122224799        0.8885432355       -1.5804074679
 O         -6.2084503430        0.7249495119        0.1840915634
 C         -4.3416192358       -1.1258207771        0.1333390745
 C         -4.0376467053       -1.9697844170       -0.9164208246
 C         -3.7041541329       -3.2870947736       -0.6432561575
 C         -3.6825009404       -3.7349053554        0.6689174947
 C         -3.9907698741       -2.8742194531        1.7116809958
 C         -4.3274234678       -1.5568757250        1.4448866254
 H         -4.5737320674       -0.8605589476        2.2288839722
 H         -3.9689234850       -3.2260454985        2.7305043963
 H         -3.4205703759       -4.7599340671        0.8795225626
 H         -3.4616061559       -3.9568845393       -1.4530726537
 H         -4.0591239579       -1.5765719574       -1.9204972381
 H         -4.5356907870        2.1995235590        1.2916167285
 H         -2.9630210738        3.9577634685        1.1317734415
 H         -0.7063656041        4.6674239140        0.4253364024
 H          0.8253573309        3.0526938112       -0.6322744460
 H          0.6842981962        0.8645738429       -2.1409387980
 C         -0.1285242703       -0.9298766717       -1.3624274020
 C          0.7605235240       -2.1358118468       -1.3985774015
 C         -0.1969554737       -1.9454779909       -0.2626061451
 H         -1.0662068114       -2.5845676691       -0.2095879719
 H          0.1939434544       -1.6592898257        0.7008423900
 H          0.5515019405       -2.9038589963       -2.1278670606
 H          1.8141799353       -1.9869605580       -1.2114319213
 H         -0.9531275885       -0.9210962564       -2.0695923068
