  62
        -98.93367019
 C         -2.2880367600       -0.8180105699        0.2982793106
 C         -3.4785678198       -0.7072018902        1.0606476910
 C         -4.6717545499       -0.1949970097        0.3651861916
 C         -4.5680895801        0.1582185611       -0.9273333482
 C         -5.6381195303        0.7395345618       -1.8095885376
 C         -5.5815009201        2.2765274418       -1.7968296167
 C         -6.3817302798        2.9413430112       -0.6774800561
 H         -6.1537158496        4.0093058312       -0.7054311355
 H         -7.4482560298        2.8287397115       -0.8833554459
 C         -6.0970219295        2.4143145303        0.7312856335
 H         -5.0218808295        2.2791225301        0.8626482632
 H         -6.4162017892        3.1761770899        1.4450686641
 C         -6.8308365796        1.1018215502        1.0442487329
 H         -7.3729378293        1.2058930297        1.9864784931
 H         -7.5813005898        0.9200125308        0.2752092430
 C         -5.9293608997       -0.1324643600        1.1887270419
 H         -6.5216974898       -1.0319994798        0.9890019615
 H         -5.5848796894       -0.2115906907        2.2247294518
 H         -4.5315591701        2.5721604916       -1.7257973668
 H         -5.9614013603        2.6483266224       -2.7505779864
 H         -6.6190173703        0.3790085817       -1.5143380976
 H         -5.4263440506        0.3925442024       -2.8231880779
 O         -3.3971963403        0.0719341314       -1.6143621686
 C         -2.2320195902       -0.4094516491       -1.0350772692
 O         -1.2571460504       -0.4165703287       -1.8090458394
 O         -3.5417094595       -1.0209791310        2.2795312308
 C         -1.0599921799       -1.3606763205        1.0079582100
 C          0.1303803502       -0.4664659805        0.7804997102
 C          0.2612208405        0.7047771990        1.5201991609
 C          1.3416907106        1.5463853690        1.3309951412
 C          2.3141720503        1.2379838795        0.3955391207
 C          2.1863398900        0.0774947100       -0.3541667499
 C          1.1075705599       -0.7702173600       -0.1547134802
 H          1.0178467497       -1.6644491196       -0.7525670007
 N          3.1890052897       -0.2373641196       -1.3064142304
 S          4.5733716498       -0.9099710202       -0.6229711611
 O          5.2913991195       -1.5307732296       -1.7146367417
 O          4.2436175700       -1.7714155008        0.4923108184
 C          5.4740641301        0.5095710894       -0.0426315205
 C          6.0561386900        1.3435531499       -0.9773002801
 C          6.7450531002        2.4625378595       -0.5374743996
 C          6.8383231406        2.7267407187        0.8211092006
 C          6.2495412207        1.8782857482        1.7464608902
 C          5.5592492905        0.7570589085        1.3132115997
 H          5.0828654806        0.0706520682        1.9945092893
 H          6.3232284510        2.0857533875        2.8018908803
 H          7.3739734208        3.5991264084        1.1608953210
 H          7.2052166601        3.1243771699       -1.2534316693
 H          5.9626076697        1.0963793105       -2.0217286302
 H          2.8477901595       -0.8566306491       -2.0293437507
 H          3.1544437403        1.8927879295        0.2309483409
 H          1.4274526008        2.4503941987        1.9142528017
 H         -0.5006533093        0.9487106687        2.2479774113
 H         -1.3215348796       -1.3113283811        2.0775547901
 C         -0.7537761601       -2.8213647603        0.7072890090
 C         -1.8622440703       -3.8231708801        0.5921435786
 C         -1.0458275005       -3.4675761395       -0.6123720613
 H         -0.3414947007       -4.1964885493       -0.9876205520
 H         -1.4984292406       -2.8649540490       -1.3843677909
 H         -1.7276199503       -4.7967078404        1.0385542580
 H         -2.8744191202       -3.4500762200        0.6491332191
 H          0.1475149600       -3.1523192208        1.2163650386
