  62
        -98.94878087
 C         -0.9345716573       -1.2994721268        0.0409811451
 C         -1.9105761147       -1.0567890908        1.0343016737
 C         -2.6390398959        0.2133287645        0.9228343319
 C         -2.3214552748        1.0670536674       -0.0675807118
 C         -3.0081520426        2.3783297825       -0.3175353130
 C         -4.1812273122        2.2159891987       -1.2940267997
 C         -5.1297990458        1.0736641793       -0.9311043943
 H         -4.5990077031        0.1243740259       -1.0318567168
 H         -5.9356558605        1.0724810826       -1.6680884160
 C         -5.7280561790        1.1697983993        0.4792832263
 H         -6.7965826546        0.9515452119        0.4228946404
 H         -5.6252107168        2.1874091205        0.8579433537
 C         -5.1276668325        0.1915273556        1.4908601833
 H         -5.1437736283       -0.8198135007        1.0767075612
 H         -5.7621482491        0.1903142608        2.3812740934
 C         -3.6967812297        0.4993321654        1.9512577126
 H         -3.4719401966       -0.1532047605        2.8004829037
 H         -3.6324626531        1.5347542030        2.2935676498
 H         -3.7778406636        2.0223471911       -2.2903155147
 H         -4.7359227255        3.1554816889       -1.3266317396
 H         -3.3616803058        2.7816995109        0.6296380793
 H         -2.2821540194        3.0716854565       -0.7448440917
 O         -1.3627643042        0.8091874539       -0.9921245954
 C         -0.6427475296       -0.3757556885       -0.9630183221
 O          0.2090848276       -0.4842723882       -1.8636481200
 H          1.0752388043       -0.4920703925        1.2752542400
 C          1.7894795994       -1.1661053938        0.8256864672
 C          1.3475550879       -2.3042740246        0.1649989823
 C          2.2958967182       -3.1611768273       -0.3823585919
 C          3.6454240067       -2.8738295013       -0.2790514905
 C          4.0787227194       -1.7230229262        0.3535579289
 C          3.1383320944       -0.8615323644        0.9068830770
 N          3.5343831163        0.3208973536        1.5534439163
 S          2.6281662413        1.7111050048        1.4022046958
 O          3.5358954613        2.7655984867        1.8096469971
 O          1.4138983781        1.6122504575        2.1756290675
 C          2.2378138109        1.9325102130       -0.3247232752
 C          1.0895313398        2.6323390364       -0.6316288110
 C          0.7901454529        2.8869642330       -1.9593002027
 C          1.6389811277        2.4343642303       -2.9553616168
 C          2.7896475340        1.7349838267       -2.6319197763
 C          3.0998156319        1.4862698691       -1.3051831303
 H          3.9900287950        0.9407703801       -1.0383599029
 H          3.4441026597        1.3750113369       -3.4093616410
 H          1.3964885510        2.6207628842       -3.9896915571
 H         -0.1100500292        3.4239550852       -2.2131230181
 H          0.4454409787        2.9469026828        0.1753909913
 H          4.5238376724        0.5193387166        1.5226002709
 H          5.1308212453       -1.4918184238        0.4225452859
 H          4.3699447830       -3.5493229132       -0.7074175460
 H          1.9758360970       -4.0552329962       -0.8919437945
 C         -0.1336716975       -2.5849064291        0.0914884876
 H         -0.4347996549       -3.0829138880        1.0263040051
 C         -0.5050977415       -3.4786180038       -1.0765456631
 C         -0.5500792323       -4.9683644616       -0.9176676080
 C         -1.8236351744       -4.1901756231       -1.0481450538
 H         -2.3889218748       -4.2685426474       -1.9646512866
 H         -2.4359344845       -4.0581427556       -0.1677165414
 H         -0.3077991967       -5.3773500479        0.0517317837
 H         -0.2424276657       -5.5852016303       -1.7486693399
 H         -0.1760179360       -3.0726275382       -2.0265683153
 O         -2.1592502194       -1.8644779810        1.9721190735
