  62
        -98.94439140
 C          1.8617390359       -0.7834190651       -0.1117459945
 C          2.3847172897        0.5300614149       -0.1850951542
 C          3.8086748144        0.6266944280       -0.5322425002
 C          4.5164333960       -0.4907083046       -0.7789205880
 C          5.9690669007       -0.5520648146       -1.1667867907
 C          6.9360368656       -0.4976497136        0.0238530559
 C          7.0593047161        0.8684114898        0.6998776070
 H          7.9215379441        0.8186601926        1.3678538772
 H          7.2745011298        1.6273582204       -0.0529599215
 C          5.8272773515        1.2848080046        1.5155446449
 H          5.2067654091        0.4076224790        1.7129954166
 H          6.1467223555        1.6747655133        2.4846864268
 C          4.9647287667        2.3614981538        0.8567231426
 H          4.1029248059        2.5526222436        1.5014508415
 H          5.5353896952        3.2893408882        0.7748536266
 C          4.4397904125        1.9861600675       -0.5353028474
 H          5.2469159669        2.0311312946       -1.2662518845
 H          3.6694636562        2.7081366506       -0.8177668731
 H          6.6253882427       -1.2419502902        0.7606581793
 H          7.9229386448       -0.7867497581       -0.3447268541
 H          6.1127247318       -1.5037499365       -1.6828797934
 H          6.1979311185        0.2575339557       -1.8603139282
 O          3.9677376764       -1.7335577305       -0.7218021425
 C          2.6393554637       -1.9118780154       -0.3704611938
 O          2.2716834080       -3.1037674016       -0.3351203932
 O          1.7028016069        1.5670402700        0.0233062842
 C          0.4090744829       -0.9987283090        0.2741023019
 C         -0.4971862303       -0.2476122913       -0.6700050437
 C         -0.2891605678       -0.3761649881       -2.0416881625
 C         -1.0772881392        0.3091151163       -2.9443704534
 C         -2.1026699804        1.1262184655       -2.5004526075
 C         -2.3288030077        1.2505366767       -1.1360105073
 C         -1.5348523889        0.5583962897       -0.2296510233
 H         -1.7264564994        0.6869060449        0.8221310712
 N         -3.3592423781        2.0745052500       -0.6574028458
 S         -4.3148825911        1.5553340570        0.6095270678
 O         -5.5323225994        2.3273240776        0.4840573387
 O         -3.6139070841        1.6844231283        1.8612644666
 C         -4.6408388513       -0.1629314614        0.2568044435
 C         -5.3233029076       -0.4718260872       -0.9037689718
 C         -5.5550565289       -1.8021577948       -1.2113280242
 C         -5.1017936565       -2.7970614230       -0.3581504247
 C         -4.4246711349       -2.4703019427        0.8060705796
 C         -4.1891448935       -1.1405616234        1.1180691758
 H         -3.6645049475       -0.8440296386        2.0113629145
 H         -4.0769890906       -3.2451008617        1.4709093166
 H         -5.2793348216       -3.8330259851       -0.6003228695
 H         -6.0851664031       -2.0600907502       -2.1139324475
 H         -5.6724078295        0.3260616564       -1.5387495066
 H         -3.9072391858        2.5241876264       -1.3758143612
 H         -2.7138317500        1.6715260921       -3.2033683069
 H         -0.8945884510        0.2067778560       -4.0034398552
 H          0.5134926440       -1.0129054037       -2.3886603988
 H          0.2179315104       -2.0748641152        0.1506488822
 C          0.2086180588       -0.6323416648        1.7299619908
 C         -0.8069127331       -1.3542461394        2.5610321768
 C          0.6546280242       -1.5971998618        2.7859125616
 H          1.1139320070       -1.2064689550        3.6816207218
 H          1.0750922577       -2.5350434671        2.4523688450
 H         -1.3547227007       -0.7932123980        3.3039787542
 H         -1.3765631811       -2.1352969142        2.0809083071
 H          0.3693586559        0.4229265478        1.9212729729
