  62
        -98.94485933
 C         -1.9308243319       -0.2073193616        0.0626631360
 C         -2.9675656252       -1.0516490101        0.5281444307
 C         -4.2698903842       -0.4097816959        0.7483788295
 C         -4.3958581515        0.9120238359        0.5300571950
 C         -5.6758245309        1.6840039630        0.6645708954
 C         -6.4368360742        1.7323097653       -0.6677365225
 C         -6.5943779320        0.3677298393       -1.3387092312
 H         -7.1731976120        0.5197242876       -2.2523708032
 H         -5.6095898038        0.0030453386       -1.6398495108
 C         -7.2827896358       -0.6922401719       -0.4674386614
 H         -8.0222095400       -1.2180293826       -1.0751816253
 H         -7.8200446562       -0.2083288149        0.3489771252
 C         -6.3406671703       -1.7533745797        0.1042049819
 H         -5.7331635532       -2.1748227736       -0.7006410482
 H         -6.9500210336       -2.5637197712        0.5130918131
 C         -5.4007243607       -1.2801183983        1.2202185726
 H         -5.9774517334       -0.7756065020        1.9980047381
 H         -4.9332964141       -2.1665970398        1.6587388632
 H         -7.4215863036        2.1672471623       -0.4873277241
 H         -5.8950934589        2.3896647586       -1.3518707636
 H         -6.2942476088        1.2222545567        1.4317816330
 H         -5.4321443645        2.7027274285        0.9707906131
 O         -3.3699068590        1.6960602359        0.1111830504
 C         -2.1156273851        1.1595141058       -0.1448972020
 O         -1.2756245465        1.9895392147       -0.5403205687
 H          1.6820036001        0.6710635076       -0.9012322284
 C          1.5398732021        0.5660545200        0.1605342768
 C          0.4649511308       -0.1457993410        0.6667715250
 C          0.3110684379       -0.2305112380        2.0493428122
 C          1.2017470768        0.3938427987        2.8992421380
 C          2.2724411911        1.1083762942        2.3893005077
 C          2.4373755832        1.1977143590        1.0129764258
 N          3.5020935439        1.9366750083        0.4732321211
 S          4.4186304088        1.3391622446       -0.7885289655
 O          5.5798900958        2.2001655388       -0.8292615299
 O          3.6360001516        1.2649760895       -1.9949227701
 C          4.8964047465       -0.2932026247       -0.2522384868
 C          6.0020141769       -0.4161478399        0.5670975029
 C          6.3472693062       -1.6696086055        1.0449302362
 C          5.5785139572       -2.7726803195        0.7050839287
 C          4.4715406614       -2.6322207226       -0.1173645354
 C          4.1234087612       -1.3813938391       -0.6029159837
 H          3.2729392944       -1.2355558875       -1.2478523563
 H          3.8757713039       -3.4909676030       -0.3828401254
 H          5.8445690093       -3.7482435852        1.0803727098
 H          7.2106018677       -1.7826922534        1.6806618018
 H          6.5770543787        0.4657989254        0.7985374204
 H          4.0917937127        2.3807539335        1.1617457995
 H          2.9655695974        1.6052765274        3.0510135401
 H          1.0652106949        0.3241628776        3.9678562154
 H         -0.5287562565       -0.7849520957        2.4455133622
 C         -0.5646269918       -0.8136963419       -0.2093014866
 H         -0.6498951665       -1.8657652712        0.0999008424
 C         -0.2455688730       -0.7671864564       -1.6878603658
 C          0.6780020597       -1.7833356162       -2.2877598698
 C         -0.7904998618       -1.8385112710       -2.5823817079
 H         -1.1323691959       -1.5618691091       -3.5685198155
 H         -1.3753927022       -2.6205397277       -2.1203921010
 H          1.0834234038       -2.5367382868       -1.6290681448
 H          1.3496530855       -1.4683426628       -3.0729467526
 H         -0.2205573448        0.2420137495       -2.0842291105
 O         -2.8093077641       -2.2818537191        0.7517016151
