  62
        -98.94650991
 C          1.1810712034        1.1434148282        0.5747244602
 C          1.6362193482        0.6044775087       -0.6535595106
 C          2.4364014081       -0.6233581177       -0.5463455123
 C          2.5851890991       -1.2257099352        0.6464666974
 C          3.3543092288       -2.4910608546        0.9122026089
 C          4.8600809516       -2.2696439643        1.1136704310
 C          5.6417019212       -1.9182162486       -0.1531442693
 H          6.7021687758       -2.0064201533        0.0913312412
 H          5.4257498075       -2.6538326986       -0.9285563224
 C          5.3761513694       -0.5050492685       -0.6913398015
 H          4.9084788506        0.0999671387        0.0888392324
 H          6.3259943175       -0.0261025510       -0.9396447924
 C          4.5031250022       -0.4569672361       -1.9456360088
 H          5.0253816602       -0.9414634186       -2.7736046321
 H          4.3469854682        0.5909601799       -2.2136791137
 C          3.1276102271       -1.1170914399       -1.7813041407
 H          2.5105079408       -0.8435389978       -2.6400189647
 H          3.2387167543       -2.2006400321       -1.7558346901
 H          5.0014713892       -1.4830196793        1.8585245632
 H          5.2736110029       -3.1934912808        1.5247913593
 H          2.9449107071       -2.9179794880        1.8300705902
 H          3.1984259062       -3.1993888486        0.0984476804
 O          2.0143103410       -0.7450706208        1.7833443854
 C          1.3362210844        0.4608330555        1.7818805309
 O          0.9093069535        0.8098422886        2.9031537310
 O          1.4049222215        1.1156657523       -1.7778249736
 C          0.4304414534        2.4660125854        0.6189006323
 C         -0.9488869983        2.2480474118        0.0475664721
 C         -1.3947626735        2.7953689977       -1.1469374423
 C         -2.6609174708        2.4963587711       -1.6237096710
 C         -3.5055079368        1.6552666490       -0.9222988634
 C         -3.0671706463        1.1066004254        0.2765182666
 C         -1.8009007105        1.4037963327        0.7508881608
 H         -1.4562288762        0.9699213545        1.6814710760
 N         -3.9140980503        0.2281866049        0.9927742929
 S         -4.2056338613       -1.2364283124        0.2324974358
 O         -5.0209308877       -0.9997988836       -0.9308050195
 O         -4.7699449509       -2.0986916180        1.2454461266
 C         -2.5969240754       -1.8299960905       -0.2582827996
 C         -2.0741028909       -1.4365848063       -1.4738741696
 C         -0.8053579863       -1.8663876318       -1.8260309233
 C         -0.0871298565       -2.6779827374       -0.9623325025
 C         -0.6206407185       -3.0545043223        0.2602701960
 C         -1.8861743101       -2.6221646509        0.6208403028
 H         -2.3410115510       -2.8990760017        1.5587776980
 H         -0.0541516031       -3.6792828425        0.9322717291
 H          0.8946564373       -3.0192622041       -1.2466515235
 H         -0.3777193739       -1.5603709628       -2.7670455043
 H         -2.6658383707       -0.8132387691       -2.1238744150
 H         -3.5786972257        0.0456070903        1.9290038310
 H         -4.4866445438        1.3993427389       -1.2883100138
 H         -2.9939504416        2.9248016564       -2.5567924188
 H         -0.7474630509        3.4447723282       -1.7122595019
 H          0.3130350058        2.7085062951        1.6846407241
 C          1.2113206954        3.5760386327       -0.0491263385
 C          0.8807890578        5.0028173654        0.2665348736
 C          2.1553387975        4.3988314411        0.7729306282
 H          3.0880552986        4.7117434389        0.3281022565
 H          2.2305013778        4.1715664502        1.8267128490
 H          0.9389824672        5.7340474280       -0.5251412858
 H          0.0892519391        5.1864271359        0.9774511671
 H          1.5156257543        3.3345462208       -1.0596948873
