  62
        -98.93405572
 C          2.5052670634        0.3135175976        0.1125624153
 C          2.5430848035       -0.8289471838        0.9450469157
 C          2.2311017091       -2.1314773918        0.3285894847
 C          1.9144780999       -2.1650434647       -0.9789181355
 C          1.4962606306       -3.3482733763       -1.8108638180
 C          0.0388678279       -3.7540846843       -1.5465230188
 C         -0.3423863740       -3.8485987183       -0.0717517512
 H         -0.2153938681       -2.8666260450        0.3901501637
 H         -1.4101632168       -4.0804127672       -0.0224550770
 C          0.4050810704       -4.9092195357        0.7342064172
 H          0.2473190856       -5.8853451026        0.2700472868
 H         -0.0500870389       -4.9353988526        1.7276838571
 C          1.9101647623       -4.6908358421        0.9111780387
 H          2.2403385307       -5.3483666720        1.7206791147
 H          2.4611248260       -4.9923791205        0.0242634715
 C          2.3036043846       -3.2734820826        1.3136054178
 H          1.7023269063       -2.9647889333        2.1771403593
 H          3.3395530791       -3.2858216381        1.6743891622
 H         -0.6085859221       -2.9987699671       -1.9991114211
 H         -0.1486102818       -4.7104566991       -2.0385489094
 H          2.1681817594       -4.1853843146       -1.6469619846
 H          1.5871627216       -3.0434674538       -2.8558664886
 O          1.8945324002       -1.0402694258       -1.7471734277
 C          2.1353904991        0.2183715624       -1.2300686481
 O          2.0061836311        1.1391217630       -2.0593099845
 O          2.8115080423       -0.7664517608        2.1781605236
 C          2.6877569386        1.6711095803        0.7680185779
 C          1.5030984999        2.5443577928        0.4310216021
 C          1.5916266990        3.8747180350        0.0478402310
 C          0.4436413142        4.5952217795       -0.2416698599
 C         -0.8040102603        4.0050599603       -0.1824178748
 C         -0.9017190188        2.6667455181        0.1898767641
 C          0.2415181248        1.9676342191        0.5282078708
 H          0.1527078905        0.9384114588        0.8471350939
 N         -2.1454562459        2.0117433236        0.1789711113
 S         -2.2839357139        0.3715323776        0.4859034936
 O         -2.0466239024        0.0779952926        1.8855160334
 O         -1.4846553285       -0.3516776331       -0.4689846600
 C         -4.0148973592        0.1562553152        0.1175704434
 C         -4.3975418616        0.0720866211       -1.2077362666
 C         -5.7430449927       -0.0621797353       -1.5104283728
 C         -6.6794302096       -0.1088882611       -0.4879866666
 C         -6.2807387647       -0.0265360524        0.8374606567
 C         -4.9360789637        0.1089606856        1.1462851760
 H         -4.5779987705        0.1681746394        2.1614880089
 H         -7.0103123012       -0.0669291095        1.6301147788
 H         -7.7260198724       -0.2134858004       -0.7264255734
 H         -6.0556566188       -0.1296522584       -2.5399857665
 H         -3.6320668359        0.1049676761       -1.9659778558
 H         -2.9267256971        2.5594873301        0.5056130485
 H         -1.6934806441        4.5612709258       -0.4331003061
 H          0.5264572151        5.6312013054       -0.5337107872
 H          2.5565591321        4.3464686447       -0.0397611516
 H          2.6400653802        1.4515795190        1.8495167205
 C          4.0333512202        2.3374862074        0.5247048968
 C          5.2151391290        1.5501484801        0.0451383109
 C          4.5775001654        2.5652268612       -0.8527136966
 H          5.1126697294        3.4835406386       -1.0457674611
 H          3.9837940779        2.2162651897       -1.6824167385
 H          6.1835442470        1.7683126611        0.4701267132
 H          5.0600230038        0.5043150536       -0.1787530528
 H          4.2439456616        3.1065676925        1.2617772560
