  62
        -98.94097747
 C         -1.7176904467       -0.1490794380        0.9277794809
 C         -2.9227078721       -0.8752057772        0.7646028359
 C         -4.1321432821       -0.0702455360        0.5288973415
 C         -4.0403321633        1.2697963434        0.4682242487
 C         -5.1808717072        2.1987680173        0.1713988517
 C         -5.2990008008        2.4718968285       -1.3346532616
 C         -5.2770054490        1.2090608688       -2.1959324827
 H         -5.3984502344        1.5222666672       -3.2351830892
 H         -4.2940056097        0.7391934166       -2.1151992703
 C         -6.3601259425        0.1802820502       -1.8426583395
 H         -6.8151028885       -0.1809372297       -2.7674273031
 H         -7.1485270570        0.6572413120       -1.2592051345
 C         -5.8459545107       -1.0482200483       -1.0899575300
 H         -4.9942932034       -1.4758122234       -1.6250745744
 H         -6.6395820896       -1.8002328135       -1.0843289052
 C         -5.4298932689       -0.8113993049        0.3672658175
 H         -6.2338264269       -0.3008706939        0.9012501550
 H         -5.2764779559       -1.7901276806        0.8311069275
 H         -6.2254206010        3.0205927571       -1.5139930723
 H         -4.4633609630        3.1067878545       -1.6378902353
 H         -6.1049635588        1.7624450246        0.5455595259
 H         -4.9992167837        3.1419883925        0.6893177014
 O         -2.8676845357        1.9340963204        0.6257828122
 C         -1.6887101825        1.2482074885        0.8541338155
 O         -0.6891103892        1.9834144812        0.9808121656
 O         -3.0144254098       -2.1313107091        0.8068746247
 C         -0.3699675138       -0.8007929381        1.1893481761
 C          0.2818366497       -1.2930275008       -0.0808384917
 C         -0.3353487443       -2.2261279372       -0.9068380053
 C          0.3049326319       -2.6804587095       -2.0450640431
 C          1.5764519634       -2.2375150178       -2.3655904559
 C          2.2032774267       -1.3087228839       -1.5438650438
 C          1.5450022433       -0.8312225331       -0.4195873760
 H          2.0282295108       -0.0942030094        0.2034120159
 N          3.4897325218       -0.8356098629       -1.8372845008
 S          4.5829490490       -0.5664141065       -0.5980684014
 O          5.8790786470       -0.6500749314       -1.2365973313
 O          4.3607424769       -1.4635951450        0.5112218314
 C          4.2930546327        1.1181841100       -0.1037486966
 C          4.0722614024        1.4138772482        1.2264339929
 C          3.8673729918        2.7337124899        1.5956191959
 C          3.8887577228        3.7298433636        0.6321799957
 C          4.1163694703        3.4171444544       -0.6994950970
 C          4.3220979866        2.0995456253       -1.0744381889
 H          4.5049171163        1.8181543191       -2.0980928945
 H          4.1314688774        4.1960581540       -1.4447935059
 H          3.7251204868        4.7556587502        0.9223320401
 H          3.6871266305        2.9783940750        2.6302182704
 H          4.0582442521        0.6078227308        1.9436876699
 H          3.9276893766       -1.2609769296       -2.6412940259
 H          2.0811699799       -2.6071091770       -3.2454985457
 H         -0.1849481495       -3.4005907361       -2.6832349606
 H         -1.3173364498       -2.5901577722       -0.6468422690
 H          0.2683800600       -0.0038323600        1.5946856551
 C         -0.4215933374       -1.9289292317        2.2040067514
 C          0.8653400551       -2.4227025566        2.7915746600
 C         -0.0968252635       -1.6451896517        3.6378746783
 H         -0.6479290694       -2.1687795967        4.4047021186
 H          0.1605036151       -0.6294479319        3.9014094126
 H          0.9718767004       -3.4809022297        2.9762241012
 H          1.7810897284       -1.9449333408        2.4738454046
 H         -1.1933637120       -2.6582909530        1.9975462144
