  62
        -98.94214962
 C         -2.2253028615       -0.8882680019        0.1276490275
 C         -1.6346831725       -0.0739426387       -0.8661379144
 C         -2.0621382564        1.3357841966       -0.9020317143
 C         -2.9035610220        1.7905791788        0.0421100838
 C         -3.5362197952        3.1534526432        0.1917361222
 C         -2.7141813037        4.3875733256       -0.1881122131
 C         -1.2350141378        4.3267766649        0.2192873781
 H         -0.9821615096        5.2264535440        0.7838885162
 H         -1.0557754293        3.4712411422        0.8743889756
 C         -0.2882191128        4.2332865462       -0.9783076031
 H         -0.6256378584        4.9200985678       -1.7582344369
 H          0.7077280981        4.5524972874       -0.6612623072
 C         -0.1473818866        2.8282380862       -1.5579718952
 H          0.3200422164        2.1843077493       -0.8090255195
 H          0.5293650733        2.8781342048       -2.4145926949
 C         -1.4636552966        2.1667194049       -2.0016906343
 H         -2.1691018569        2.9056354377       -2.3752179880
 H         -1.2342405518        1.4675807698       -2.8105575274
 H         -2.7845823927        4.5593528723       -1.2610231196
 H         -3.1914921414        5.2401776252        0.2988726503
 H         -4.4648587622        3.1523105360       -0.3883543099
 H         -3.8204542137        3.2182746967        1.2455472513
 O         -3.3715216653        0.9884145087        1.0438931667
 C         -3.0527442014       -0.3551107108        1.1113376685
 O         -3.5575062704       -0.9587523594        2.0828710800
 H         -0.3193571531       -1.1111086576        1.9070552097
 C          0.2590399624       -1.7591413383        1.2588775817
 C         -0.3974578866       -2.5306136589        0.3073928042
 C          0.3618527544       -3.3596500703       -0.5078604890
 C          1.7425358296       -3.3783587530       -0.4026176512
 C          2.3940195146       -2.5573922325        0.5001763357
 C          1.6396651232       -1.7477086711        1.3379031880
 N          2.3167275143       -0.8297193249        2.1975021386
 S          2.2919370737        0.7129922564        1.5011234422
 O          3.0500762973        1.5611865823        2.3973915912
 O          0.9364978614        1.1518551579        1.2437474317
 C          3.1886497258        0.4530890243       -0.0099232629
 C          2.5151474735        0.0782825153       -1.1557603337
 C          3.2502579233       -0.1717073147       -2.3046372561
 C          4.6307366743       -0.0484692749       -2.2880175094
 C          5.2904343679        0.3267805579       -1.1269780220
 C          4.5643226796        0.5774605901        0.0255605260
 H          5.0286260060        0.8731989804        0.9519800039
 H          6.3643141137        0.4213564413       -1.1161344963
 H          5.1951064998       -0.2473289969       -3.1854638296
 H          2.7314268739       -0.4672566982       -3.2022499436
 H          1.4399393185       -0.0191553658       -1.1475735335
 H          1.8819362068       -0.7592988038        3.1089064791
 H          3.4695304085       -2.5284422173        0.5635767242
 H          2.3184187868       -4.0207016396       -1.0504402757
 H         -0.1283131420       -3.9775742320       -1.2422345578
 C         -1.8926210301       -2.3700739935        0.1940061442
 H         -2.3575182806       -2.7464455739        1.1170550607
 C         -2.4939816665       -3.0936259882       -0.9924660433
 C         -2.8642148137       -4.5417121605       -0.8855710535
 C         -3.9360224207       -3.4958715925       -0.9394610402
 H         -4.5293363323       -3.4074654003       -1.8370243284
 H         -4.4801343721       -3.2686752423       -0.0339144260
 H         -2.7260919105       -5.1748613973       -1.7487810895
 H         -2.6865895830       -5.0349889853        0.0580205306
 H         -2.1119083427       -2.7283993016       -1.9386605215
 O         -0.8082899164       -0.5098800965       -1.7091981234
