  62
        -98.94069509
 C          1.1713283405        1.3256446178        0.0329249856
 C          1.7799923516        0.6011363417        1.0829133050
 C          2.6200897629       -0.5464539872        0.6988090574
 C          2.7424460874       -0.8653604635       -0.6033622280
 C          3.5209839530       -1.9682298083       -1.2913888946
 C          4.5690935112       -2.7780767801       -0.5323416939
 C          5.8170346074       -1.9922244050       -0.1310644135
 H          6.4433827896       -2.6376606405        0.4886620964
 H          6.3815017566       -1.7515811802       -1.0354821737
 C          5.5622548431       -0.6839644191        0.6133305618
 H          5.0170575866        0.0068608519       -0.0329117248
 H          6.5321432255       -0.2265156355        0.8268661124
 C          4.8128478476       -0.8209422359        1.9370905508
 H          4.8391572413        0.1533098274        2.4328144417
 H          5.3293500004       -1.5360374189        2.5805007873
 C          3.3374040750       -1.2410128417        1.8205653038
 H          3.2407180039       -2.3205160280        1.7317792580
 H          2.8290524433       -0.9421825808        2.7421016619
 H          4.8884488145       -3.5801750676       -1.2033804609
 H          4.1239137348       -3.2551821036        0.3358391738
 H          3.9951617107       -1.4984857117       -2.1590016385
 H          2.7743261770       -2.6633536717       -1.6894903449
 O          2.0726385883       -0.1814183883       -1.5749607002
 C          1.2707390406        0.9124332907       -1.2949566363
 O          0.7239361722        1.4117794336       -2.2937494941
 O          1.6272976211        0.8975053509        2.2999412022
 C          0.3319488486        2.5447928308        0.3792302816
 C         -1.1198176439        2.2018497033        0.1592563034
 C         -1.9117265691        2.7666051905       -0.8304917839
 C         -3.2213232978        2.3489850118       -1.0017842418
 C         -3.7670938656        1.3688774175       -0.1931426953
 C         -2.9823474289        0.8025128697        0.8033642010
 C         -1.6729820706        1.2191587522        0.9727443678
 H         -1.0586247068        0.7711108460        1.7436131333
 N         -3.5226694716       -0.2211438475        1.6163376335
 S         -3.9114186342       -1.6227209131        0.7815026160
 O         -5.1250126863       -1.4033452292        0.0376029142
 O         -3.9530512301       -2.6720900781        1.7744260920
 C         -2.5425964616       -1.8664744442       -0.3354126972
 C         -2.6432905138       -1.4337294021       -1.6418986823
 C         -1.5448714039       -1.5630670033       -2.4757673251
 C         -0.3714417028       -2.1185856844       -1.9914683204
 C         -0.2844132739       -2.5441687329       -0.6749143633
 C         -1.3775170519       -2.4116743766        0.1650563124
 H         -1.3465905202       -2.7353612123        1.1935078219
 H          0.6321478036       -2.9679584649       -0.2956703102
 H          0.4820691580       -2.2070026333       -2.6452110921
 H         -1.6001749290       -1.2215890319       -3.4966461741
 H         -3.5743631076       -1.0111122210       -1.9819649481
 H         -2.9216394820       -0.4556030020        2.3947051152
 H         -4.7794670564        1.0220584777       -0.3234807741
 H         -3.8245743509        2.7924351290       -1.7792210849
 H         -1.5003078267        3.5229042797       -1.4777887771
 H          0.4798465543        2.7017345111        1.4572798311
 C          0.7974615355        3.7789005224       -0.3611655548
 C          0.4134556496        5.1342336274        0.1502910368
 C          1.8303403119        4.6616867752        0.2701776774
 H          2.5805011467        5.1111957775       -0.3630004317
 H          2.1960590334        4.3837608093        1.2480458155
 H          0.1906071807        5.9120874187       -0.5639031697
 H         -0.1847321186        5.1770354315        1.0479621120
 H          0.8559803926        3.6352778137       -1.4331667604
