  62
        -98.93819581
 C         -1.7957118293       -1.6866649509       -0.1305518303
 C         -1.5959827302       -0.3740489207       -0.6216974700
 C         -2.7716609507        0.5113472386       -0.5801656095
 C         -3.9407507303        0.0311540879       -0.1191021293
 C         -5.2028908707        0.8276553271        0.0543769913
 C         -5.1075428609        1.6931787169        1.3271821115
 C         -5.0936703518        3.1995887969        1.0660227718
 H         -6.1068185921        3.5265109464        0.8223834022
 H         -4.8056649718        3.6901316869        1.9983743918
 C         -4.1656857824        3.6748825077       -0.0560305584
 H         -4.6414861326        3.5023794576       -1.0225275583
 H         -4.0664343830        4.7570478677        0.0528510918
 C         -2.7639498421        3.0510363485       -0.0794687689
 H         -2.4858244716        2.6947363585        0.9127195209
 H         -2.0528527726        3.8340205290       -0.3501597290
 C         -2.5857013517        1.9103870289       -1.0985520592
 H         -1.5569326818        1.9288538095       -1.4697033295
 H         -3.2498136721        2.0761945287       -1.9512645490
 H         -4.2028236705        1.4077639073        1.8682489911
 H         -5.9490306805        1.4681441062        1.9843269017
 H         -5.3689552814        1.4509195172       -0.8213989285
 H         -6.0262266003        0.1180199966        0.1388717014
 O         -4.0942610995       -1.2435703223        0.3272991405
 C         -3.0286695989       -2.1281709117        0.3466483900
 O         -3.3008613282       -3.2564780420        0.8047673198
 O         -0.4968736406        0.0380431101       -1.0736146703
 C         -0.6327504488       -2.6634256602       -0.1014336408
 C          0.4942787211       -2.0482298898        0.6905675690
 C          0.2488187413       -1.6660376302        2.0070701391
 C          1.2292067811       -1.0502891998        2.7606357490
 C          2.4770574008       -0.7972334790        2.2169433487
 C          2.7317013107       -1.1748359185        0.9061413685
 C          1.7483875308       -1.8070307489        0.1550510087
 H          1.9650653707       -2.0921562686       -0.8622885915
 N          3.9969942404       -0.9178337477        0.3414040682
 S          4.5423085694        0.6660807927        0.3247712884
 O          5.6816695892        0.6600525135       -0.5650712319
 O          4.7956681596        1.0913800225        1.6783229684
 C          3.2185435687        1.6263476321       -0.3840467410
 C          2.2372169586        2.1417450313        0.4376054494
 C          1.1945410880        2.8528137308       -0.1325631101
 C          1.1508977975        3.0342937511       -1.5052810801
 C          2.1411939576        2.5053739019       -2.3175199905
 C          3.1840784082        1.7897086423       -1.7541768910
 H          3.9786510982        1.3684917029       -2.3494311513
 H          2.0996134672        2.6438124221       -3.3861851804
 H          0.3387589071        3.5907565507       -1.9469879997
 H          0.4161415780        3.2558278802        0.4953597102
 H          2.3065073990        1.9849363711        1.5016731093
 H          4.1072021403       -1.3168052274       -0.5804401819
 H          3.2493151407       -0.3025964086        2.7835611286
 H          1.0217190613       -0.7603601402        3.7799281391
 H         -0.7305870385       -1.8519046109        2.4278329594
 H         -0.9909815181       -3.5519803906        0.4371908291
 C         -0.2512277190       -3.0671733997       -1.5098641110
 C          0.4611378917       -4.3630390992       -1.7530463915
 C         -0.9737521485       -4.2084608100       -2.1570882811
 H         -1.2099745088       -4.1393765699       -3.2083825910
 H         -1.7303829780       -4.7119578405       -1.5730617910
 H          1.2090456215       -4.4052583186       -2.5306208518
 H          0.6824750423       -4.9801582293       -0.8953822417
 H         -0.0017300496       -2.2180604894       -2.1359161109
