  62
        -98.93940830
 C         -1.9566183667       -0.2695119374       -0.4870101788
 C         -1.2333559755       -1.2637620733       -1.1890338663
 C         -0.9124351088       -2.5014579864       -0.4568550080
 C         -1.2960774611       -2.6101768520        0.8276437585
 C         -1.0649985803       -3.7894353155        1.7322327748
 C          0.3569529374       -3.8149826418        2.3334399553
 C          1.4434087422       -3.1920050008        1.4562544263
 H          1.1205369915       -2.1904766062        1.1639263635
 H          2.3353143454       -3.0533539765        2.0746498467
 C          1.8517312138       -4.0109526369        0.2299207220
 H          2.4870692241       -3.3814871847       -0.3985090146
 H          2.4558619102       -4.8567592727        0.5688894931
 C          0.7134412584       -4.5766785407       -0.6168242267
 H          0.1370171952       -5.2829323678       -0.0246727656
 H          1.1676651222       -5.1478369909       -1.4321222823
 C         -0.2055383393       -3.5499816633       -1.2784014310
 H         -0.9767481942       -4.0935828746       -1.8385690195
 H          0.3653580124       -2.9881480054       -2.0252855435
 H          0.6228140388       -4.8454447801        2.5744538855
 H          0.3362025574       -3.2439825626        3.2641959433
 H         -1.7875698323       -3.7139071161        2.5473248118
 H         -1.2785586682       -4.7022853872        1.1807873527
 O         -1.9341654434       -1.6077555705        1.4870760573
 C         -2.2473155314       -0.4055747395        0.8718992208
 O         -2.7859419792        0.4215944534        1.6310531496
 O         -0.8614922898       -1.1227930850       -2.3861403137
 C         -2.2503283046        1.0309639062       -1.2188435070
 C         -1.6789715685        2.1657902788       -0.4083719997
 C         -2.4141019501        3.2267961282        0.0997156890
 C         -1.8006022833        4.1721214907        0.9048081450
 C         -0.4634498395        4.0640784572        1.2401153845
 C          0.2819490622        3.0069278762        0.7286622086
 C         -0.3214735092        2.0976546156       -0.1205005693
 H          0.2576765648        1.2812069049       -0.5243460087
 N          1.6383713154        2.8409592917        1.0463926467
 S          2.2632287419        1.2917659018        1.2075673778
 O          1.2672510852        0.3410505422        1.6401490520
 O          3.4070586834        1.4604894294        2.0807508303
 C          2.8550883714        0.9034868857       -0.4263479535
 C          2.3635182070       -0.1929210531       -1.1047538862
 C          2.8416499967       -0.4674823510       -2.3761006087
 C          3.8030648007        0.3540831258       -2.9433024893
 C          4.2938423227        1.4483724519       -2.2463452439
 C          3.8172156122        1.7283063729       -0.9762065189
 H          4.1750662715        2.5646288592       -0.3994237106
 H          5.0427907678        2.0839256403       -2.6905702343
 H          4.1699701419        0.1383237249       -3.9343292161
 H          2.4473591639       -1.3129164309       -2.9173721097
 H          1.6065374612       -0.8060100194       -0.6399767935
 H          1.9887618146        3.4653279926        1.7581383930
 H         -0.0006176791        4.7815555763        1.9006899310
 H         -2.3811255439        4.9915175135        1.3013711649
 H         -3.4696763784        3.2972660722       -0.1056793631
 H         -1.6624677977        0.9505081397       -2.1490669789
 C         -3.6956091028        1.2324695273       -1.6417218044
 C         -4.5920700948        0.0588405692       -1.8983251797
 C         -4.8585764988        0.9652933029       -0.7359016333
 H         -5.7095262178        1.6287271097       -0.7918239105
 H         -4.6478419627        0.6081285811        0.2592124891
 H         -5.2591144883        0.0947635880       -2.7465083981
 H         -4.1938336613       -0.9248678248       -1.6943846934
 H         -3.7989738455        2.0713319287       -2.3235823887
