  62
        -98.93690905
 C         -1.4445467760       -1.4999552993        0.1519962365
 C         -2.5763509215       -1.0657195517        0.8807423531
 C         -3.3265522420        0.0853675817        0.3398547081
 C         -2.8659390168        0.6889148598       -0.7714300272
 C         -3.4316074332        1.8955125466       -1.4725975124
 C         -3.1277785586        3.2146808535       -0.7411084588
 C         -3.2594897339        3.1587563714        0.7788286284
 H         -2.6238574582        2.3599651419        1.1661842459
 H         -2.8769635326        4.1005176270        1.1816994509
 C         -4.6822292708        2.9724899590        1.3001436321
 H         -5.2973897858        3.8121708472        0.9686021123
 H         -4.6376844474        3.0051576161        2.3919647364
 C         -5.3755156535        1.6730321960        0.8890605184
 H         -5.6952867878        1.7143142027       -0.1486305275
 H         -6.2847830015        1.5845821411        1.4910027624
 C         -4.5621775986        0.4077637956        1.1451377436
 H         -4.2480757517        0.3913793628        2.1951992230
 H         -5.2250116867       -0.4591045708        1.0306734082
 H         -3.7871214423        3.9892950172       -1.1360090383
 H         -2.0990216860        3.5028754789       -0.9695349878
 H         -4.5012255967        1.7699109894       -1.6149691071
 H         -2.9687815327        1.9301432040       -2.4611183142
 O         -1.7373815979        0.2716341200       -1.4101661110
 C         -1.0032196333       -0.8245595781       -0.9876587046
 O         -0.0115975253       -1.0741412974       -1.6935377110
 O         -2.9486232503       -1.6105141093        1.9561169222
 C         -0.6557888598       -2.6769770022        0.6977909906
 C          0.8153883622       -2.3446767951        0.6886607432
 C          1.7829549657       -3.1155802033        0.0599174873
 C          3.1091851400       -2.7174220724        0.0646692409
 C          3.4985278727       -1.5469606660        0.6881502403
 C          2.5373352136       -0.7679755722        1.3198993922
 C          1.2142010597       -1.1759004092        1.3270204782
 H          0.4668991419       -0.5631276153        1.8175174038
 N          2.9166259890        0.4416007803        1.9388047266
 S          3.6933368575        1.5639108344        0.9638685828
 O          5.0537009345        1.1379586024        0.7510339125
 O          3.5242503761        2.8305970736        1.6414439740
 C          2.7988282970        1.5565628908       -0.5767353786
 C          3.2825365754        0.8308770928       -1.6455143268
 C          2.5441142116        0.7926211001       -2.8164617533
 C          1.3423176207        1.4761370046       -2.8980838744
 C          0.8728288196        2.2043613197       -1.8170220011
 C          1.6013136922        2.2403584968       -0.6405644936
 H          1.2669313534        2.7961893490        0.2218991742
 H         -0.0672763776        2.7284309705       -1.8846203139
 H          0.7619420486        1.4349322092       -3.8059811873
 H          2.9012154379        0.2204541494       -3.6572482974
 H          4.2230982128        0.3150256168       -1.5435007397
 H          2.1544496349        0.8914875419        2.4260096224
 H          4.5240874673       -1.2147053897        0.6866148840
 H          3.8496981087       -3.3244687475       -0.4335565690
 H          1.4978490145       -4.0163446106       -0.4576843138
 H         -0.9791988932       -2.7592774034        1.7495376069
 C         -0.9821061158       -4.0099071956        0.0416200784
 C         -2.3103492615       -4.2450558755       -0.6116969630
 C         -1.0688931000       -4.1672437751       -1.4459250145
 H         -0.6930332453       -5.0786943758       -1.8874033933
 H         -0.9059394307       -3.2885636128       -2.0495275939
 H         -2.7842728671       -5.2059565229       -0.4774887933
 H         -3.0048285162       -3.4182480993       -0.6483024111
 H         -0.5691452424       -4.8465053182        0.5970041583
