  62
        -98.94234968
 C          1.8221998144        1.1605868439       -0.1102489045
 C          3.1726909986        1.2378504875        0.3067909961
 C          4.0763691625        0.2374110157       -0.2715051652
 C          3.6023350887       -0.6561475305       -1.1590970817
 C          4.4055393288       -1.7185150218       -1.8593658455
 C          4.5902698644       -3.0040117670       -1.0411682215
 C          5.5572316637       -2.8909542077        0.1380659556
 H          5.7574568225       -3.9061283348        0.4863947413
 H          6.5033167413       -2.4735593801       -0.2079536267
 C          5.0255640268       -2.0611838094        1.3150382355
 H          3.9426228996       -1.9514879479        1.2226846436
 H          5.2148872574       -2.5926138522        2.2503425450
 C          5.6540382035       -0.6739340712        1.4477742297
 H          6.7184998306       -0.7735097757        1.6711654910
 H          5.1805325892       -0.1617010145        2.2892574819
 C          5.4973718175        0.2123837096        0.2049067612
 H          6.1595617806       -0.1321999942       -0.5890082112
 H          5.7757282169        1.2341039412        0.4745197553
 H          4.9684849844       -3.7706926271       -1.7212577437
 H          3.6126482077       -3.3321489635       -0.6809572643
 H          3.8611512788       -1.9670243676       -2.7729936923
 H          5.3813693253       -1.3178095292       -2.1352324654
 O          2.2993950998       -0.6844184143       -1.5480031827
 C          1.3740343417        0.2051735307       -1.0220220247
 O          0.2117320336        0.0426187749       -1.4401145796
 O          3.5980561570        2.0977750339        1.1231847594
 C          0.8232132056        2.1588404502        0.4463897803
 C         -0.3562914277        1.4276657067        1.0340977347
 C         -0.1249190207        0.4081734085        1.9548653188
 C         -1.1678737687       -0.3291595606        2.4801696250
 C         -2.4710707104       -0.0692032517        2.0914851288
 C         -2.7138030697        0.9556799327        1.1897146218
 C         -1.6664424779        1.7073929835        0.6772482245
 H         -1.8851789455        2.4879333192       -0.0351447299
 N         -4.0564349100        1.1767921713        0.7676496461
 S         -4.4094769544        0.3458376557       -0.6637045961
 O         -3.6456764467        0.8855041622       -1.7687568778
 O         -5.8462725785        0.4300216836       -0.8197808509
 C         -3.9254849935       -1.3238263136       -0.2998974934
 C         -2.6296225508       -1.7265170651       -0.5571707350
 C         -2.2629435072       -3.0223440723       -0.2272062295
 C         -3.1859261258       -3.8824046777        0.3478596302
 C         -4.4833105140       -3.4598105947        0.5964961164
 C         -4.8586804793       -2.1663320758        0.2725855507
 H         -5.8541133840       -1.7904916749        0.4438498888
 H         -5.1988391477       -4.1318316848        1.0422858027
 H         -2.8904274159       -4.8881295206        0.6026477146
 H         -1.2521261854       -3.3457537608       -0.4196539179
 H         -1.9268309792       -1.0358050178       -0.9992724089
 H         -4.2452290257        2.1564468424        0.5934987581
 H         -3.2960973592       -0.6458421653        2.4765374882
 H         -0.9662170870       -1.1184773993        3.1878090351
 H          0.8955426595        0.1933982278        2.2423299348
 H          1.3510826296        2.6854451971        1.2552797534
 C          0.4463353160        3.1649925728       -0.6211859003
 C          0.0237883809        4.5512572200       -0.2378381454
 C          1.3595066220        4.3244408898       -0.8780192882
 H          1.5064802012        4.6487300562       -1.8973681179
 H          2.2438455681        4.4020742715       -0.2628246623
 H         -0.7471239294        5.0346978679       -0.8195616321
 H          0.0006968929        4.7941423625        0.8138106126
 H         -0.0294399493        2.7039037107       -1.4812915395
