  62
        -98.94557365
 C         -1.9648895344       -1.5155303464       -0.0970133783
 C         -1.6853542384       -0.2657942365       -0.7018649115
 C         -2.8129863381        0.6762429155       -0.7625398571
 C         -4.0159452923        0.2976428905       -0.2935943108
 C         -5.2345529446        1.1728496827       -0.2523409955
 C         -5.3329489310        1.9225898873        1.0835750454
 C         -4.0381552898        2.6248684998        1.4926007970
 H         -4.2342675277        3.1465235256        2.4319638721
 H         -3.2730691292        1.8722921938        1.6970362852
 C         -3.5031627989        3.6215219394        0.4551395743
 H         -4.2972042282        3.8910838830       -0.2422449073
 H         -3.2028576901        4.5354573420        0.9720132002
 C         -2.2836207259        3.1312149554       -0.3279303303
 H         -1.8644791557        3.9871836011       -0.8629571906
 H         -1.5217695565        2.7694459624        0.3668681992
 C         -2.5488399865        2.0290633171       -1.3610469788
 H         -3.3677487316        2.3276912779       -2.0186211615
 H         -1.6436128127        1.9130235399       -1.9639024235
 H         -5.5957501101        1.2054682649        1.8648636347
 H         -6.1393810130        2.6546525900        1.0105916289
 H         -5.1956221276        1.8816634884       -1.0770562512
 H         -6.1165146479        0.5408578131       -0.3698420119
 O         -4.2513854251       -0.9250604722        0.2489696005
 C         -3.2304240071       -1.8520221078        0.3812837583
 O         -3.5694352830       -2.9199114404        0.9310420791
 H          1.7894659592       -2.3092563540       -0.7219087804
 C          1.5855782697       -1.8615555775        0.2379533337
 C          0.3078946623       -1.9121150099        0.7698064764
 C          0.0816767421       -1.3244734865        2.0120438758
 C          1.1035675565       -0.6934742135        2.6943182244
 C          2.3756181949       -0.6308808970        2.1518360095
 C          2.6121175697       -1.2166041244        0.9165487201
 N          3.9006969056       -1.1505968837        0.3524998183
 S          4.6058096950        0.3628838264        0.2132261626
 O          5.6539610963        0.1974305945       -0.7690554351
 O          5.0265793553        0.8125847754        1.5166203358
 C          3.3241533852        1.4261780779       -0.4214407328
 C          2.6387103247        2.2634699187        0.4340469525
 C          1.6186434068        3.0494009277       -0.0764755065
 C          1.3014354004        2.9811928705       -1.4232350734
 C          1.9972287268        2.1325527868       -2.2687857732
 C          3.0167874500        1.3437508917       -1.7646015849
 H          3.5868458299        0.6784277747       -2.3933613004
 H          1.7424795790        2.0781639453       -3.3150110948
 H          0.5050332887        3.5924329445       -1.8171749721
 H          1.0719644120        3.7097740529        0.5779202216
 H          2.9183490124        2.2912426000        1.4745516899
 H          3.9773172182       -1.6454297170       -0.5249087723
 H          3.1838218484       -0.1337249044        2.6631903753
 H          0.9097566289       -0.2418656125        3.6557231849
 H         -0.9152687586       -1.3623791639        2.4309414720
 C         -0.8562634232       -2.5434192490        0.0472799641
 H         -1.2616204981       -3.3474213706        0.6779393924
 C         -0.5026367873       -3.1192911597       -1.3079266502
 C          0.1066295835       -4.4846180664       -1.4111417642
 C         -1.3114077204       -4.2614721143       -1.8416878570
 H         -1.5407823725       -4.2827770540       -2.8965700146
 H         -2.1058489082       -4.6412040828       -1.2157814210
 H          0.8494279464       -4.6644647078       -2.1739350154
 H          0.2783537217       -5.0261622613       -0.4931771151
 H         -0.1868829152       -2.3603874293       -2.0149291904
 O         -0.5593039742        0.0467363246       -1.1663926775
