  62
        -98.94520498
 C         -2.0888147750       -1.4683584019       -0.0162543053
 C         -1.8903438664       -0.4633310418       -0.9937226608
 C         -2.7981251125        0.6917463981       -0.9186271486
 C         -3.7217312441        0.7488090442        0.0574795508
 C         -4.6555617801        1.8997468789        0.2914456656
 C         -4.0410601451        2.9266806107        1.2533560657
 C         -2.6174819790        3.3467901784        0.8860899275
 H         -2.3063277838        4.0989274097        1.6140736114
 H         -1.9500212565        2.4896572169        1.0014945901
 C         -2.4712239784        3.9132887377       -0.5329628839
 H         -3.4487044143        4.2078409741       -0.9166363956
 H         -1.8572820219        4.8151395210       -0.4915669501
 C         -1.8022081119        2.9618259020       -1.5262724903
 H         -0.8681500308        2.5854565707       -1.1027030789
 H         -1.5525769364        3.5299137704       -2.4262304651
 C         -2.6447510172        1.7587713023       -1.9661411980
 H         -2.1290255564        1.2826912721       -2.8051911703
 H         -3.6229377546        2.0980125861       -2.3132927986
 H         -4.0228093454        2.4930757277        2.2559152262
 H         -4.6878285320        3.8057625113        1.2759541283
 H         -4.8889747746        2.3719907484       -0.6608710777
 H         -5.5769355723        1.5114955913        0.7288375250
 O         -3.8756062216       -0.2295171554        0.9855606653
 C         -3.0709998283       -1.3540678516        0.9725649588
 O         -3.3237676541       -2.1740008272        1.8778089411
 O         -1.0117440699       -0.5121077970       -1.8950060928
 C         -1.2342778491       -2.7263988902        0.0357094493
 C          0.1377297653       -2.3692329776        0.5547885831
 C          0.3961044397       -2.4414434635        1.9201803334
 C          1.6359009690       -2.0908352540        2.4225412386
 C          2.6402452462       -1.6527413554        1.5770148182
 C          2.3836613110       -1.5513560902        0.2156545201
 C          1.1422309673       -1.9186648846       -0.2885379617
 H          0.9477439138       -1.8238951225       -1.3450772516
 N          3.3873077535       -1.1039073584       -0.6616584562
 S          4.2855153514        0.2596108712       -0.3077914639
 O          4.9992106604        0.5624659408       -1.5267670952
 O          5.0947290045        0.0062169278        0.8581681639
 C          3.1109017493        1.5548747836        0.0421036194
 C          2.6273422840        1.7099101364        1.3258402482
 C          1.6942809772        2.7043600364        1.5734355493
 C          1.2696536232        3.5271953760        0.5422558393
 C          1.7684000239        3.3615751266       -0.7410510363
 C          2.6917330668        2.3615013705       -0.9972897717
 H          3.1071610281        2.2023269305       -1.9793362195
 H          1.4382234681        4.0050029839       -1.5407302814
 H          0.5454041473        4.3015543613        0.7395895363
 H          1.3033648543        2.8344414239        2.5699376688
 H          2.9911828213        1.0642595225        2.1075966075
 H          3.0903027855       -1.0816330405       -1.6265804160
 H          3.6153974564       -1.3869926200        1.9519072595
 H          1.8257356695       -2.1635951416        3.4828843123
 H         -0.3910740888       -2.7700355996        2.5842663324
 H         -1.7125307145       -3.3779459184        0.7788534839
 C         -1.1999378245       -3.4573602191       -1.2910107196
 C         -0.7154628741       -4.8745402721       -1.3268195574
 C         -2.1686053057       -4.5732877436       -1.5353333759
 H         -2.5832711448       -4.6877181514       -2.5257429727
 H         -2.8604202502       -4.8187807610       -0.7426157786
 H         -0.1302153485       -5.1994464518       -2.1734262839
 H         -0.4203115766       -5.3236854654       -0.3904231685
 H         -0.9629490420       -2.8209556746       -2.1333897245
