  62
        -98.93969566
 C         -2.6166122461       -1.3334850572        0.2936323206
 C         -2.8554160812       -0.4994968114       -0.8264013815
 C         -3.9113762116        0.5133393404       -0.6597639081
 C         -4.5749856349        0.5992085798        0.5065409147
 C         -5.6303557091        1.6174999746        0.8246048859
 C         -5.0197327878        2.8699823527        1.4686727891
 C         -3.8152733900        3.4289193324        0.7112535284
 H         -3.4881565534        4.3277202314        1.2382888198
 H         -2.9950445849        2.7090926353        0.7646425031
 C         -4.0937083729        3.7715829384       -0.7590090644
 H         -3.6539736495        4.7461977559       -0.9812276006
 H         -5.1684929883        3.8566021577       -0.9229430071
 C         -3.5060261098        2.7791235041       -1.7640838865
 H         -3.5694360619        3.2257414067       -2.7600919243
 H         -2.4468233998        2.6206595427       -1.5450009476
 C         -4.1948379878        1.4100961654       -1.8325621515
 H         -5.2703836231        1.5459646191       -1.9623554292
 H         -3.8062228236        0.8870229301       -2.7114859679
 H         -4.6993706594        2.6170659844        2.4819135209
 H         -5.7951260651        3.6349859757        1.5380235323
 H         -6.1563905468        1.8855230469       -0.0896323465
 H         -6.3392239753        1.1695909319        1.5229702094
 O         -4.3202879595       -0.2179356108        1.5594533441
 C         -3.3422328646       -1.1928728070        1.4813840308
 O         -3.2162870519       -1.8723151036        2.5192696479
 H         -0.2516230782       -0.4054990063       -0.8664754013
 C          0.3300189107       -0.8625370491       -0.0791241133
 C         -0.2066924093       -1.9303494655        0.6273046235
 C          0.5616347330       -2.5211807820        1.6231394928
 C          1.8348137070       -2.0539074687        1.9001445229
 C          2.3656795540       -0.9902078626        1.1927992762
 C          1.6055266578       -0.3918370717        0.1962416869
 N          2.1341573324        0.6951894476       -0.5252692286
 S          3.6187967476        0.4613580161       -1.2788735696
 O          3.6491019452        1.4116343898       -2.3688067946
 O          3.8183989506       -0.9261537635       -1.6290601444
 C          4.8048730523        0.9565816410       -0.0468585668
 C          5.8200353901        0.0939564055        0.3174218946
 C          6.7405280820        0.5064738858        1.2684715231
 C          6.6302282177        1.7674256386        1.8341868181
 C          5.6056974544        2.6225797086        1.4557758793
 C          4.6831239423        2.2170694421        0.5046950976
 H          3.8741655854        2.8507357543        0.1810667314
 H          5.5230410724        3.6021443453        1.8984819682
 H          7.3468008123        2.0859531896        2.5747205883
 H          7.5377358725       -0.1565297309        1.5639007802
 H          5.8616237212       -0.8792105169       -0.1451326609
 H          1.4739998204        1.0913953850       -1.1798304076
 H          3.3570080251       -0.6231209172        1.4030844669
 H          2.4204750798       -2.5223947546        2.6761978937
 H          0.1507204109       -3.3465433064        2.1860840047
 C         -1.5829428111       -2.4489994751        0.2979699435
 H         -1.8893678809       -3.1157391547        1.1190126277
 C         -1.6085713578       -3.2733856768       -0.9845414766
 C         -0.4860669803       -3.3193162976       -1.9736843522
 C         -0.7591286585       -4.5043644727       -1.0999223510
 H         -1.1869372334       -5.3908601249       -1.5429104924
 H         -0.0613060880       -4.7012596647       -0.2999311908
 H          0.4017724899       -2.7364530297       -1.7809838475
 H         -0.7460526965       -3.3716026961       -3.0202664074
 H         -2.6091273825       -3.3369931705       -1.4005230629
 O         -2.2315810930       -0.5750933181       -1.9179162868
