  62
        -98.94847925
 C          0.8342226645        1.2296624323        0.5644560731
 C          1.2046872489        0.5364359929       -0.6126097071
 C          2.1447632008       -0.5753479701       -0.4201486431
 C          2.4742640925       -0.9620082690        0.8250218110
 C          3.4112637512       -2.0830479650        1.1850606806
 C          4.8886453448       -1.6663240342        1.2073914144
 C          5.5123802950       -1.4244154000       -0.1678933420
 H          6.5917857281       -1.3518250209       -0.0207407257
 H          5.3284990078       -2.2894088936       -0.8056318951
 C          5.0232189653       -0.1501877712       -0.8708132861
 H          5.8801160489        0.3919052578       -1.2771990431
 H          4.5467105302        0.5085258869       -0.1409223700
 C          4.0522681560       -0.3943953493       -2.0265496974
 H          3.7470465284        0.5762269993       -2.4252265047
 H          4.5629072748       -0.9401172132       -2.8228451792
 C          2.7847497692       -1.1687343672       -1.6381291241
 H          2.0680061194       -1.0891492311       -2.4580190306
 H          3.0243128452       -2.2183208770       -1.4749315188
 H          4.9887234598       -0.7658843438        1.8180318740
 H          5.4464972534       -2.4653695177        1.7013244028
 H          3.2829558636       -2.9133792068        0.4906837403
 H          3.1307870077       -2.4164015803        2.1866877761
 O          1.9673277105       -0.3631914170        1.9377424823
 C          1.1956949921        0.7836617545        1.8347608229
 O          0.8921429090        1.3009267026        2.9304138428
 O          0.7949634405        0.8406099523       -1.7615098527
 C          0.0180761525        2.5050525269        0.4651174359
 C         -1.3159660062        2.2373921655       -0.1858665854
 C         -1.8374956945        3.0150385378       -1.2117035077
 C         -3.0819433023        2.7267551705       -1.7443394887
 C         -3.8293500591        1.6664107851       -1.2670971006
 C         -3.3196056478        0.8883398832       -0.2329027885
 C         -2.0724580844        1.1764264371        0.2968922510
 H         -1.6874674674        0.5742717613        1.1078428577
 N         -4.0642136018       -0.1783427464        0.2904207656
 S         -3.3163807638       -1.5168983114        0.9324877425
 O         -4.3483253842       -2.5340385514        0.9228911594
 O         -2.7558970665       -1.2172295163        2.2269567761
 C         -2.0288282490       -2.0036654405       -0.2022191630
 C         -2.2394399346       -1.9132158848       -1.5634767896
 C         -1.2696629469       -2.3983187649       -2.4252938735
 C         -0.1212159433       -2.9822597987       -1.9161173691
 C          0.0768427839       -3.0635862288       -0.5473487093
 C         -0.8812128671       -2.5639325800        0.3189302165
 H         -0.7586250125       -2.5944613676        1.3907129627
 H          0.9687058607       -3.5173374122       -0.1471284135
 H          0.6240455444       -3.3757043049       -2.5888420922
 H         -1.4154097798       -2.3235555222       -3.4907519249
 H         -3.1460640393       -1.4687722219       -1.9399584419
 H         -4.9118008799       -0.4084550125       -0.2062878334
 H         -4.8004923232        1.4430613667       -1.6813429519
 H         -3.4743013198        3.3356853683       -2.5443442168
 H         -1.2699908307        3.8459490376       -1.5963171851
 H         -0.1751147831        2.8220393279        1.5010693797
 C          0.8305009691        3.5781659499       -0.2312212654
 C          0.6101059463        5.0242283030        0.0925531348
 C          1.8555554026        4.3331995880        0.5583161157
 H          2.7935226756        4.5811995910        0.0844834631
 H          1.9477867195        4.0925170625        1.6079501694
 H          0.6968750384        5.7506776395       -0.7012900998
 H         -0.1415037830        5.2627537873        0.8298950232
 H          1.0830073536        3.3126040359       -1.2512695594
