  62
        -98.94314929
 C          1.8471784862        1.3749538448       -0.0213882614
 C          2.3384985520        0.4590062024        0.9436410755
 C          3.0854091487       -0.6948170058        0.4279706115
 C          3.2803966172       -0.8101438257       -0.8978932379
 C          3.9535670905       -1.9720302319       -1.5679086285
 C          2.9326491164       -3.0521986221       -1.9541416997
 C          1.9793068341       -3.4373658329       -0.8221040523
 H          1.3438024760       -2.5812510333       -0.5821072552
 H          1.3265622957       -4.2252482906       -1.2047318288
 C          2.6773282049       -3.9236676102        0.4560740776
 H          2.1682437885       -4.8206607328        0.8148334478
 H          3.7057566229       -4.2075000796        0.2298618244
 C          2.6709306130       -2.9138872441        1.6053477967
 H          2.9875234755       -3.4317591267        2.5143050534
 H          1.6542658425       -2.5488901368        1.7678884988
 C          3.5885395503       -1.6980770514        1.4269647739
 H          4.5969424332       -2.0278058001        1.1693476675
 H          3.6323779760       -1.1711351728        2.3844327472
 H          3.4767381074       -3.9364434969       -2.2911566259
 H          2.3372750514       -2.6817857896       -2.7923616439
 H          4.4476038926       -1.6114772511       -2.4717654628
 H          4.7032719656       -2.3880332592       -0.8978048484
 O          2.8265999416        0.1035596675       -1.7926522321
 C          2.0859956818        1.2083804737       -1.3864419476
 O          1.7072698934        1.9291952475       -2.3297546056
 O          2.1560687427        0.6017032718        2.1821322082
 C          1.0391925377        2.5486420651        0.4897677892
 C         -0.4521531072        2.3919651547        0.2857534844
 C         -1.3333463583        3.2259755434        0.9686008052
 C         -2.7007367980        3.0981259092        0.8074976164
 C         -3.2255604828        2.1388098795       -0.0413906749
 C         -2.3568061212        1.3030014434       -0.7281533517
 C         -0.9843631177        1.4282515158       -0.5555512309
 H         -0.3250859624        0.7662854628       -1.0996872398
 N         -2.8747400405        0.3198672606       -1.5984968084
 S         -3.8076413068       -0.8867593462       -0.9067411013
 O         -3.9609605592       -1.8943239612       -1.9304788231
 O         -5.0199645911       -0.3002896993       -0.3961864453
 C         -2.8234503918       -1.5217706746        0.4378628475
 C         -2.8526808976       -0.8750240741        1.6574636768
 C         -2.0409875749       -1.3397793564        2.6798516535
 C         -1.2231081612       -2.4389394891        2.4685371794
 C         -1.2065420805       -3.0783482354        1.2382959302
 C         -2.0074638837       -2.6114908009        0.2086488792
 H         -2.0259021247       -3.0806860288       -0.7622413560
 H         -0.5702708872       -3.9338405023        1.0772659597
 H         -0.5945488533       -2.7985101418        3.2683211262
 H         -2.0461398681       -0.8420192549        3.6360615320
 H         -3.5094293857       -0.0307924604        1.7881851843
 H         -2.1650550470       -0.1001024412       -2.1822665629
 H         -4.2882650571        2.0152874447       -0.1728283011
 H         -3.3681347275        3.7523788234        1.3470555450
 H         -0.9386795139        3.9780440826        1.6333510205
 H          1.2201008868        2.5687719560        1.5743806581
 C          1.5062354268        3.8695982891       -0.0978014690
 C          1.5685261249        5.1020251810        0.7514292232
 C          2.8338163886        4.4253908481        0.3200227323
 H          3.4525942943        4.8976594977       -0.4278561771
 H          3.3922520988        3.8707714167        1.0604146126
 H          1.3117440990        6.0488378235        0.3016987545
 H          1.2917580063        5.0170428890        1.7913302424
 H          1.2305315616        3.9867026232       -1.1388879183
