  62
        -98.93969026
 C          2.0381076320        0.5030475952        0.2098543759
 C          2.6738884518       -0.7659460685        0.2086948865
 C          4.0322634933       -0.8193688107       -0.3459202836
 C          4.5832699775        0.3054762581       -0.8366220034
 C          5.9733815170        0.4109706390       -1.3920379210
 C          6.9808829404        0.7970273181       -0.3002872526
 C          6.8735612812       -0.0525824706        0.9659404396
 H          7.6521076029        0.2866338414        1.6526572246
 H          5.9126646520        0.1438942112        1.4470677005
 C          7.0212708358       -1.5624177451        0.7313538258
 H          7.4872623215       -1.7433920779       -0.2378997942
 H          7.6883035535       -1.9716048306        1.4930688779
 C          5.7118805890       -2.3491099998        0.8180541422
 H          5.1946773490       -2.0992037369        1.7479862279
 H          5.9569639432       -3.4139257263        0.8572147967
 C          4.7328538144       -2.1488431544       -0.3458800353
 H          5.2503206783       -2.3114138023       -1.2937173328
 H          3.9450435842       -2.9020754950       -0.2511665750
 H          7.9875067217        0.7117475466       -0.7135138426
 H          6.8125633272        1.8412451932       -0.0271904702
 H          6.2525947899       -0.5412789541       -1.8387887937
 H          5.9768010457        1.1804810612       -2.1657768650
 O          3.9396893231        1.4978124674       -0.8398296098
 C          2.6576495683        1.6356264423       -0.3209230133
 O          2.2138871653        2.7957274949       -0.3996180607
 O          2.1269151805       -1.8087756494        0.6595552675
 C          0.6375561476        0.5589681321        0.7956229430
 C         -0.3891592868        0.3515051881       -0.2902708280
 C         -0.4185022311        1.1729809094       -1.4144639072
 C         -1.3472668622        0.9584520735       -2.4148820931
 C         -2.2745424797       -0.0643145105       -2.3069176245
 C         -2.2589793239       -0.8842305482       -1.1861054105
 C         -1.3156556141       -0.6754804889       -0.1878897682
 H         -1.3112860516       -1.3301600452        0.6705158090
 N         -3.1962751383       -1.9268181826       -1.0410861654
 S         -4.2051484753       -1.8799202400        0.2951979615
 O         -3.4357956813       -2.0579748696        1.4986924764
 O         -5.2285013684       -2.8651984374        0.0286132066
 C         -4.9049104251       -0.2401620433        0.2429441146
 C         -4.2401076576        0.7923435335        0.8728256091
 C         -4.7382303408        2.0803914531        0.7573509183
 C         -5.8859049408        2.3118855847        0.0147348832
 C         -6.5445833418        1.2635023508       -0.6102174863
 C         -6.0484875923       -0.0255532557       -0.5014659426
 H         -6.5322369897       -0.8700151031       -0.9654032321
 H         -7.4390159277        1.4472931171       -1.1834013153
 H         -6.2694824057        3.3159484491       -0.0750291781
 H         -4.2247262166        2.8937979068        1.2447582309
 H         -3.3532515473        0.5716466282        1.4434175187
 H         -3.7476294693       -2.0915742350       -1.8719877144
 H         -3.0010059871       -0.2310610914       -3.0880040799
 H         -1.3552204123        1.5981955241       -3.2841546864
 H          0.2947117734        1.9795222588       -1.4886142300
 H          0.5816601005       -0.3132982861        1.4656482791
 C          0.3774733965        1.8088558797        1.6293443291
 C         -0.8177230420        2.6872424351        1.4180242656
 C         -0.7436673208        1.8064009101        2.6261792046
 H         -0.5796910742        2.2588782404        3.5925851894
 H         -1.3724197521        0.9278207272        2.6577104152
 H         -0.6839843064        3.7505821432        1.5460092218
 H         -1.5107051025        2.4244459458        0.6339130173
 H          1.2910586488        2.3083343889        1.9297035551
