  62
        -98.93953611
 C          2.6282639384        1.2612124428        0.0674872091
 C          2.7590536314        0.2587049828       -0.9233125990
 C          4.1106154686       -0.2922623389       -1.0983384580
 C          5.1208518843        0.1857265800       -0.3490380054
 C          6.5312146971       -0.3261619787       -0.3844551700
 C          6.7412719362       -1.4440851928        0.6465534912
 C          5.6712613907       -2.5351774188        0.6025311368
 H          5.9383908601       -3.2826943213        1.3527552088
 H          4.7117132058       -2.1080455363        0.9036820803
 C          5.5141161030       -3.2163068507       -0.7641400996
 H          6.3987832446       -3.0305780664       -1.3743190264
 H          5.4461649144       -4.2954528726       -0.6111129267
 C          4.2650332060       -2.7977572712       -1.5421065903
 H          4.1377228622       -3.4904145932       -2.3783394560
 H          3.3840012761       -2.8935483027       -0.9018758916
 C          4.2855972331       -1.3779765443       -2.1223212456
 H          5.2031359954       -1.2268309951       -2.6944259748
 H          3.4346428866       -1.2860078398       -2.8035266529
 H          7.7236746895       -1.8889743429        0.4782743931
 H          6.7357297872       -1.0000939619        1.6447790723
 H          6.7541999875       -0.6930362367       -1.3843338359
 H          7.2036333849        0.5011972255       -0.1517286334
 O          4.9596768491        1.1684726487        0.5742436835
 C          3.7112654305        1.7176016513        0.8175912349
 O          3.6956835225        2.5885752731        1.7114340840
 O          1.7999677356       -0.1551828140       -1.6252177223
 C          1.2658450296        1.8692367393        0.3473506384
 C          0.2915081850        0.7813382910        0.7315985415
 C          0.6626550706       -0.1306997842        1.7164652817
 C         -0.1918019399       -1.1460958410        2.0991605854
 C         -1.4373975920       -1.2761631567        1.5101374380
 C         -1.8246181722       -0.3640401290        0.5390868808
 C         -0.9662925796        0.6638659461        0.1632743139
 H         -1.2822976544        1.3648950062       -0.5934913800
 N         -3.0810579523       -0.4950917502       -0.0767350394
 S         -4.3983162052       -0.9116530252        0.8932905223
 O         -4.4026395065       -0.1081301402        2.0955731707
 O         -4.3908664328       -2.3393447537        1.0919479171
 C         -5.7557085347       -0.4558060548       -0.1673624867
 C         -6.1636454801       -1.3436476060       -1.1447709051
 C         -7.2025663793       -0.9805629845       -1.9868953480
 C         -7.8118844639        0.2566904256       -1.8391684924
 C         -7.3919675726        1.1365696317       -0.8529249151
 C         -6.3526243911        0.7804519938       -0.0079766864
 H         -5.9998121913        1.4285297972        0.7783185000
 H         -7.8699065116        2.0962304182       -0.7386248804
 H         -8.6212292723        0.5361015347       -2.4951382535
 H         -7.5337218050       -1.6623701614       -2.7535673412
 H         -5.6666799214       -2.2969927458       -1.2165517108
 H         -3.2968623152        0.2857300435       -0.6810663612
 H         -2.1126940059       -2.0665852336        1.7957801150
 H          0.1137209638       -1.8473850651        2.8617577282
 H          1.6372485795       -0.0333740045        2.1768077221
 H          1.3989163733        2.5288595793        1.2175071769
 C          0.8187509494        2.7050812189       -0.8338568851
 C         -0.0971384489        3.8737140012       -0.6307856098
 C          1.3450724928        4.1011402484       -0.9684720767
 H          1.5945845812        4.4655593533       -1.9536370758
 H          2.0058618133        4.4574052391       -0.1914467060
 H         -0.8368969548        4.0883233353       -1.3874618656
 H         -0.4205464692        4.0864990197        0.3770883900
 H          0.7151852673        2.1202858924       -1.7407232819
