  62
        -98.94967538
 C         -1.4997560516       -1.0622602192        0.0428288363
 C         -2.5216384664       -0.6414180453        0.9241759537
 C         -3.0577157252        0.7048740995        0.6896117674
 C         -2.5351764032        1.4584925944       -0.2955646711
 C         -3.0118735444        2.8325193046       -0.6662884485
 C         -4.1008420150        2.7738590461       -1.7468227057
 C         -5.2235812341        1.7836008450       -1.4372856830
 H         -5.9482106086        1.8484829392       -2.2516859042
 H         -4.8164645698        0.7700494696       -1.4473447588
 C         -5.9348677707        2.0292392394       -0.0994273307
 H         -5.7324392123        3.0432735752        0.2471688042
 H         -7.0126306651        1.9483662533       -0.2553931023
 C         -5.5694891762        1.0354330518        1.0046873842
 H         -5.6813148731        0.0147013995        0.6305496702
 H         -6.2797574759        1.1629971078        1.8259241161
 C         -4.1603942159        1.1795064460        1.5940915583
 H         -3.9901592165        2.2148119013        1.8979444982
 H         -4.1066352749        0.5488065989        2.4867048968
 H         -4.5185997000        3.7747683076       -1.8695448846
 H         -3.6355104971        2.4810003240       -2.6907169018
 H         -3.3926325047        3.3299361845        0.2238241314
 H         -2.1586829714        3.3977133001       -1.0459295511
 O         -1.5368117475        1.0302682034       -1.1071693439
 C         -0.9901157120       -0.2321562827       -0.9547495693
 O         -0.0770104441       -0.4996928217       -1.7603341197
 H          0.4311185280       -0.5590845928        1.6025866030
 C          1.1068844035       -1.2816509202        1.1681359478
 C          0.6056687599       -2.3334497257        0.4118520469
 C          1.5045083323       -3.2484574655       -0.1234247193
 C          2.8661384898       -3.0961339883        0.0740618275
 C          3.3616557902       -2.0196202896        0.7866365536
 C          2.4701580290       -1.1043495444        1.3330027947
 N          2.9184197273        0.0317110912        2.0430254561
 S          2.6195838322        1.5113734660        1.3086103210
 O          3.2551453563        2.4909827196        2.1648249498
 O          1.2059314323        1.6764881167        1.0911283691
 C          3.5123497030        1.4083319936       -0.2327868700
 C          4.7974487170        1.9157996691       -0.2784100415
 C          5.5379820229        1.7682802934       -1.4394154977
 C          4.9870710064        1.1071612182       -2.5272656641
 C          3.6984018593        0.6010367102       -2.4630656434
 C          2.9477499303        0.7484527265       -1.3057414405
 H          1.9402241144        0.3663020369       -1.2407647866
 H          3.2618972564        0.0863691509       -3.3040081287
 H          5.5636281836        0.9862765094       -3.4308055605
 H          6.5393283235        2.1644458587       -1.4914126930
 H          5.1810394728        2.4239648446        0.5917540172
 H          3.8970935558       -0.0122775255        2.2953656652
 H          4.4245944613       -1.8840909195        0.9187893327
 H          3.5507758816       -3.8151669526       -0.3488565629
 H          1.1374120602       -4.0806505696       -0.7016070724
 C         -0.8875346093       -2.4386867143        0.2213391410
 H         -1.3278073863       -2.8383460692        1.1477728184
 C         -1.2794813980       -3.3401889099       -0.9326063087
 C         -1.4774766671       -4.8105191685       -0.7185888552
 C         -2.6601834786       -3.9220316205       -0.9560953133
 H         -3.1771951711       -3.9874214505       -1.9017056033
 H         -3.3059547197       -3.6922886585       -0.1209680460
 H         -1.1846924986       -5.4899580628       -1.5048429313
 H         -1.3285987369       -5.1958950132        0.2787377669
 H         -0.8597897463       -3.0094065871       -1.8762733714
 O         -2.9611568842       -1.3580963774        1.8658076850
