  62
        -98.93730538
 C          2.3003486048       -0.4151146329        0.3342265174
 C          3.0372103031        0.7762852489        0.1174270198
 C          4.3030230888        0.6140512551       -0.6147100159
 C          4.6689307234       -0.5946075426       -1.0753039213
 C          5.9135435439       -0.9067599564       -1.8609598597
 C          7.1592247958       -1.1321916036       -0.9929667350
 C          7.7432411204        0.1279320351       -0.3528731446
 H          8.7258165255       -0.1392513395        0.0411890308
 H          7.8961019347        0.8866491603       -1.1209442121
 C          6.8963185556        0.7101773217        0.7874108477
 H          6.1870360231       -0.0443460410        1.1357761948
 H          7.5431964365        0.9546210332        1.6330864146
 C          6.1282818172        1.9805521475        0.4221859791
 H          6.8342510126        2.7837239641        0.1999530727
 H          5.5353738820        2.2835654955        1.2889300471
 C          5.1768448300        1.8221654687       -0.7708786190
 H          4.5267695295        2.6994497007       -0.8093710356
 H          5.7440271832        1.7646249713       -1.6994510671
 H          7.9251860210       -1.5773292839       -1.6321878259
 H          6.9151558681       -1.8577044955       -0.2133519122
 H          6.1068312538       -0.1064008477       -2.5756947073
 H          5.7085305498       -1.8257093556       -2.4143867744
 O          3.9085682590       -1.7071796025       -0.8877551514
 C          2.7300068616       -1.6471660459       -0.1662712915
 O          2.1543175723       -2.7480575462       -0.0370303865
 O          2.6776370071        1.9177960815        0.4983811095
 C          0.9972078296       -0.4576482777        1.1149791997
 C         -0.1843110892       -0.1740209000        0.2257364117
 C         -0.2461004870        0.9699680088       -0.5645051596
 C         -1.3581558574        1.2244037038       -1.3467695849
 C         -2.4299922635        0.3475347057       -1.3562717555
 C         -2.3696252502       -0.8032664545       -0.5841032855
 C         -1.2526510533       -1.0582905622        0.1972542981
 H         -1.2152823355       -1.9598247505        0.7951727886
 N         -3.4873553993       -1.6805751540       -0.5715658252
 S         -4.6428865927       -1.2048992574        0.5645727587
 O         -4.0127701585       -0.7643387811        1.7903643601
 O         -5.5583370456       -2.3175424366        0.6860211512
 C         -5.4438223897        0.1648379518       -0.2354801657
 C         -5.1235023711        1.4532363971        0.1443511319
 C         -5.7307207836        2.5133457906       -0.5103287797
 C         -6.6412645543        2.2666137915       -1.5267058985
 C         -6.9535697524        0.9659679277       -1.8941717531
 C         -6.3489742142       -0.0985816325       -1.2450281367
 H         -6.5638764445       -1.1247811455       -1.4932021951
 H         -7.6634150174        0.7791496389       -2.6838403516
 H         -7.1113140933        3.0938257570       -2.0348987762
 H         -5.4889850825        3.5250119300       -0.2265885526
 H         -4.4093767653        1.5973364593        0.9391781926
 H         -3.2246032777       -2.6364949085       -0.3692781787
 H         -3.2993927023        0.5378766926       -1.9642386963
 H         -1.3926278742        2.1169026020       -1.9524954125
 H          0.5858460095        1.6579074807       -0.5508881929
 H          0.9055348793       -1.5014751382        1.4569781304
 C          1.0150850006        0.4131603952        2.3646529239
 C          0.2498108270        1.6896895282        2.5136334516
 C         -0.1927895448        0.4660227673        3.2543340101
 H         -0.0507024311        0.4236451565        4.3238662968
 H         -1.0914792663       -0.0283642254        2.9118538065
 H          0.7215500211        2.4903097212        3.0624838581
 H         -0.3528229388        2.0273362327        1.6861184890
 H          1.9795313624        0.3751060506        2.8620737623
