  62
        -98.93419071
 C          1.8674083655        1.4900804583        0.5944741207
 C          1.7711696929        0.1835374228        1.1345295511
 C          2.8237131294       -0.7802668161        0.7663344795
 C          3.8055011206       -0.3735510912       -0.0593754522
 C          4.9413211056       -1.1926833089       -0.6093269330
 C          4.4951580799       -2.1123411212       -1.7610233307
 C          3.1374186223       -2.7838339867       -1.5636444953
 H          2.3864666936       -2.0155430772       -1.3677485941
 H          2.8677306242       -3.2698538463       -2.5053666195
 C          3.0875271327       -3.8405762172       -0.4626665574
 H          2.0771490659       -4.2565438259       -0.4531231582
 H          3.7754533827       -4.6502479039       -0.7177234706
 C          3.4258258674       -3.3544899270        0.9469481473
 H          4.4948141786       -3.1849316802        1.0451245683
 H          3.1768024068       -4.1641620750        1.6394030059
 C          2.6477217377       -2.1290907602        1.4198448830
 H          2.8617053672       -1.9775408304        2.4851760236
 H          1.5740741604       -2.3378518779        1.3659850721
 H          5.2620597441       -2.8728850841       -1.9158411797
 H          4.4337304333       -1.5063429798       -2.6681687782
 H          5.6837702082       -0.4898896007       -0.9933336838
 H          5.4066012367       -1.7619298535        0.1901259248
 O          3.8511329650        0.8878365628       -0.5696677208
 C          2.8890370907        1.8452237572       -0.2855408330
 O          3.0738537123        2.9301097095       -0.8665631118
 O          0.8322296873       -0.1669321687        1.8992939742
 C          0.7485917213        2.4469610343        0.9691891914
 C         -0.4079602089        2.1794757143        0.0413545884
 C         -0.2633245151        2.3127132090       -1.3367348246
 C         -1.3108097425        2.0004458968       -2.1836623629
 C         -2.5133683653        1.5343658962       -1.6786576860
 C         -2.6580011405        1.3760320770       -0.3069340632
 C         -1.6115353021        1.7101031238        0.5438123973
 H         -1.7247989675        1.5751064277        1.6106098968
 N         -3.8698469645        0.8804133126        0.2149424053
 S         -4.3823105481       -0.6353892705       -0.2784978080
 O         -4.6290461886       -0.6075725196       -1.6974227118
 O         -5.5144009664       -0.9445996929        0.5639172669
 C         -3.0358038112       -1.7473066449        0.0857317270
 C         -3.0772841268       -2.4777458984        1.2563772506
 C         -2.0254956251       -3.3279773343        1.5545065293
 C         -0.9508941139       -3.4249822824        0.6847352041
 C         -0.9176933959       -2.6754473851       -0.4806294936
 C         -1.9693745816       -1.8273682234       -0.7873868544
 H         -1.9788305697       -1.2369860909       -1.6893554053
 H         -0.0755600817       -2.7459340506       -1.1511796363
 H         -0.1346492023       -4.0913150997        0.9173993635
 H         -2.0441483277       -3.9092167923        2.4623906088
 H         -3.9360181886       -2.3771976060        1.9006726899
 H         -3.9175312723        0.9319789272        1.2231171719
 H         -3.3306572301        1.2672255207       -2.3287457225
 H         -1.1899153230        2.1151188006       -3.2505337694
 H          0.6828632925        2.6535745369       -1.7314519263
 H          0.4381612041        2.1355492921        1.9790845919
 C          1.1656646398        3.9063075818        1.0504770058
 C          0.6047211392        4.9809519600        0.1721500383
 C          0.2078922832        4.9147520285        1.6142691843
 H          0.5824340170        5.6649939173        2.2939488715
 H         -0.7923273191        4.5746463433        1.8387743191
 H          1.2764403991        5.7627625777       -0.1481408053
 H         -0.1313403146        4.7108906572       -0.5685714821
 H          2.2068157209        4.0189300492        1.3315518075
