  62
        -98.93532910
 C         -2.0029020840       -1.0486990026        0.2580572346
 C         -2.8862756428       -0.3537387538        1.1178912170
 C         -3.5946541673        0.8152788349        0.5619552421
 C         -3.3114507163        1.2010155360       -0.6958366121
 C         -3.9198124212        2.3303066964       -1.4839392731
 C         -5.3293162061        1.9994194565       -2.0017038459
 C         -6.2419178574        1.3119619762       -0.9893286294
 H         -7.1612732912        1.0305361212       -1.5093657208
 H         -5.7678018100        0.3898188877       -0.6483164583
 C         -6.6302960372        2.1603725159        0.2191284078
 H         -7.1420555352        3.0614763373       -0.1259508268
 H         -7.3432934795        1.5783729901        0.8085959248
 C         -5.4826008425        2.5782685633        1.1406382437
 H         -5.9288920924        2.9615820014        2.0629792611
 H         -4.9126946167        3.3977329276        0.7107473215
 C         -4.5471365304        1.4449008344        1.5502717263
 H         -5.1406876562        0.6219160633        1.9647376019
 H         -3.9209999074        1.7936648552        2.3808367196
 H         -5.2238903087        1.3326792324       -2.8609882046
 H         -5.7949578425        2.9238316982       -2.3472072219
 H         -3.9269366410        3.2386132182       -0.8883795504
 H         -3.2639342529        2.5017590640       -2.3405919978
 O         -2.4020336811        0.5421128297       -1.4677340466
 C         -1.7231729413       -0.5821668218       -1.0277459022
 O         -0.9270583142       -1.0497536895       -1.8616467637
 O         -3.0840330267       -0.6941875488        2.3166689100
 C         -1.2685487937       -2.2529978918        0.8223996582
 C          0.2093796043       -2.0922337595        0.5741758323
 C          0.9587691849       -2.9416092051       -0.2276338607
 C          2.3031451361       -2.6930272799       -0.4440312836
 C          2.9269553143       -1.6015903927        0.1322459221
 C          2.1860465312       -0.7459875566        0.9370564867
 C          0.8430496581       -1.0007456220        1.1568828560
 H          0.2627578378       -0.3253120195        1.7756362039
 N          2.8176125773        0.3759348116        1.5230475934
 S          3.2810502253        1.5821442816        0.4404543049
 O          3.4192904163        2.7768648148        1.2465800971
 O          2.3712811593        1.6694928636       -0.6800065348
 C          4.8904705759        1.0597911038       -0.1092189741
 C          5.9107769697        1.0042206915        0.8204506124
 C          7.1694513528        0.5980318159        0.4070271644
 C          7.3846958844        0.2587717535       -0.9207148904
 C          6.3498175408        0.3220768706       -1.8415404776
 C          5.0876485794        0.7264669593       -1.4346771073
 H          4.2497928198        0.7849993177       -2.1112887629
 H          6.5184353379        0.0572711005       -2.8729661790
 H          8.3651693165       -0.0569028783       -1.2406438640
 H          7.9769030501        0.5470102792        1.1194678568
 H          5.6991309482        1.2827355066        1.8392320273
 H          2.2569102295        0.7997452293        2.2502444375
 H          3.9733157892       -1.4057079218       -0.0362292063
 H          2.8724131836       -3.3568214061       -1.0765731858
 H          0.4821903056       -3.7809801822       -0.7065789970
 H         -1.4383796854       -2.1853128701        1.9103706587
 C         -1.8198015143       -3.6007612932        0.3853698720
 C         -3.2749243810       -3.7649276522        0.0657152992
 C         -2.2508468903       -3.8872971705       -1.0204667063
 H         -2.0511880509       -4.8692593968       -1.4241285931
 H         -2.1648857358       -3.0924966013       -1.7441148881
 H         -3.7795081491       -4.6572699884        0.4043224348
 H         -3.8922279092       -2.8783409381        0.0874162948
 H         -1.3521135256       -4.4184123485        0.9254089294
