  62
        -98.94374957
 C         -1.7340755293       -0.3871313701        0.3288314193
 C         -2.5993594490       -0.3047933604       -0.7896970509
 C         -3.7709003491        0.5668559396       -0.6234510313
 C         -3.9324892494        1.2688635499        0.5120672985
 C         -5.0597005495        2.2178805899        0.8162144480
 C         -6.3283756396        1.5336537500        1.3436882479
 C         -7.1242380793        0.7458720997        0.3022748079
 H         -7.3150907791        1.3806495995       -0.5636198923
 H         -8.0908868594        0.5084515598        0.7509774977
 C         -6.4561228092       -0.5598422803       -0.1506811417
 H         -7.1952170891       -1.3640885604       -0.1551913116
 H         -5.6818881793       -0.8406145601        0.5669566886
 C         -5.8384131288       -0.5041910907       -1.5479233915
 H         -6.6251291587       -0.3558972209       -2.2909158218
 H         -5.3612208988       -1.4663286807       -1.7502153612
 C         -4.7835768588        0.5952445593       -1.7281563116
 H         -5.2633527489        1.5723526393       -1.7807058319
 H         -4.2545076286        0.4138732891       -2.6669503314
 H         -6.9750545397        2.3156967001        1.7483216875
 H         -6.0518720797        0.8722419402        2.1680410481
 H         -5.3013690493        2.7974928297       -0.0752921022
 H         -4.6918392697        2.9009441401        1.5850451179
 O         -3.0422521796        1.2115094902        1.5388644387
 C         -1.9348228095        0.3839612602        1.4755725591
 O         -1.2058020098        0.4269016705        2.4887322293
 O         -2.4168888088       -0.9193947606       -1.8711798807
 C         -0.4894616592       -1.2604720500        0.3053429598
 C          0.5330972309       -0.6052582502       -0.5901857401
 C          0.8079943512       -1.0289089005       -1.8833243799
 C          1.7539490614       -0.3685465707       -2.6493719599
 C          2.4539348612        0.7099143195       -2.1392719700
 C          2.1847622209        1.1389888698       -0.8462056601
 C          1.2279029708        0.4870901799       -0.0855027102
 H          1.0115260006        0.8259421901        0.9201175197
 N          2.9493859308        2.1951412699       -0.2957495602
 S          4.5646432008        1.7788852700       -0.0783598298
 O          5.0587811005        2.6372583503        0.9746510101
 O          5.2463272310        1.8703197097       -1.3441261496
 C          4.4930821307        0.0785331902        0.4578707806
 C          4.7002300909       -0.9337394201       -0.4572684391
 C          4.5132547809       -2.2465731800       -0.0561765588
 C          4.1212735106       -2.5226086397        1.2444932912
 C          3.9246176204       -1.4950423695        2.1543708509
 C          4.1058889504       -0.1801832896        1.7576038606
 H          3.9593572302        0.6449249206        2.4367346104
 H          3.6194821501       -1.7118985192        3.1657364608
 H          3.9684124606       -3.5451592796        1.5529566914
 H          4.6644664211       -3.0483434001       -0.7604859586
 H          5.0014116411       -0.6755592003       -1.4589094291
 H          2.5731007606        2.5275277801        0.5817312996
 H          3.2128458214        1.2184354694       -2.7118440299
 H          1.9535283416       -0.7033153009       -3.6557507398
 H          0.2696650714       -1.8662794506       -2.2943459299
 H         -0.0920557295       -1.2368991698        1.3292850999
 C         -0.7853107091       -2.6978623801       -0.0639742199
 C          0.2761481209       -3.7298757201        0.1693233306
 C         -0.9526913793       -3.7108969199        1.0264574603
 H         -1.6867150993       -4.4917459499        0.8946386203
 H         -0.8607368496       -3.3681034296        2.0469275002
 H          0.3884533211       -4.5267493002       -0.5493762592
 H          1.2049295108       -3.3915801399        0.6039901907
 H         -1.4141064189       -2.7988222104       -0.9390414900
