  62
        -98.93808367
 C          2.6219464897        1.0037609300        0.5394137978
 C          2.8400780717       -0.2099941122        1.2430127335
 C          4.0903946257       -0.9213051416        0.9527872912
 C          4.9495261526       -0.3960027521        0.0607064788
 C          6.2414820297       -1.0297587070       -0.3650784046
 C          6.0433981109       -1.9261117466       -1.5952056984
 C          4.8774420283       -2.9059366492       -1.4632604132
 H          3.9413661283       -2.3434986759       -1.4268206233
 H          4.8538237583       -3.5079116402       -2.3742878482
 C          4.9608669259       -3.8308760060       -0.2408817587
 H          4.7160909404       -4.8478326611       -0.5546181826
 H          5.9818156387       -3.8473458218        0.1422634834
 C          3.9994149263       -3.4712003785        0.8935153979
 H          3.9812205194       -4.3050967256        1.6003186332
 H          2.9882276916       -3.3582293230        0.4942047608
 C          4.3479443919       -2.2063315081        1.6882920761
 H          3.7029310137       -2.1803244374        2.5713883092
 H          5.3862239769       -2.2565877994        2.0226090113
 H          6.9678326468       -2.4789819471       -1.7718192749
 H          5.8575970722       -1.2881722788       -2.4624188162
 H          6.6431737504       -1.6126008889        0.4615657412
 H          6.9472313841       -0.2357963956       -0.6150536819
 O          4.7105727156        0.7666394867       -0.5933070469
 C          3.5435739702        1.4903147199       -0.3884273065
 O          3.4760397957        2.5230342178       -1.0825866598
 O          2.0247964366       -0.6715072573        2.0867707121
 C          1.3297023532        1.7419646169        0.8463502484
 C          0.2788456708        1.4488521697       -0.1987823478
 C          0.3838478627        1.9377700647       -1.4965788433
 C         -0.5984210923        1.6587272257       -2.4295049884
 C         -1.7001872284        0.8921494668       -2.0925749185
 C         -1.8137126890        0.3970458817       -0.8005946536
 C         -0.8277535702        0.6818035681        0.1364718843
 H         -0.9113391972        0.2855711718        1.1397877521
 N         -2.9202498418       -0.3992484901       -0.4541923761
 S         -4.4364718478        0.1105268212       -1.0010306572
 O         -4.6092281267       -0.3479128421       -2.3567548507
 O         -4.5848466324        1.5332134429       -0.7920567876
 C         -5.5186673712       -0.7954166529        0.0863432324
 C         -6.0255334830       -0.1697706980        1.2095564239
 C         -6.8503728503       -0.8874193691        2.0614136481
 C         -7.1499630867       -2.2115750659        1.7784765995
 C         -6.6332231004       -2.8257354629        0.6471703153
 C         -5.8087980912       -2.1138490716       -0.2094851863
 H         -5.3926057880       -2.5461913685       -1.1043539000
 H         -6.8710289474       -3.8545206476        0.4297525502
 H         -7.7928247087       -2.7674374887        2.4425943353
 H         -7.2559313238       -0.4120184376        2.9400070639
 H         -5.7737374123        0.8640015858        1.3847747595
 H         -2.9402395801       -0.6160733281        0.5330424896
 H         -2.4748399684        0.6763284473       -2.8109475093
 H         -0.5063194638        2.0440154508       -3.4341851359
 H          1.2482529246        2.5224630816       -1.7707215529
 H          0.9800171395        1.3136567930        1.7956211897
 C          1.5117390561        3.2345506014        1.0375553651
 C          0.4547854950        4.0020116655        1.7716251596
 C          1.7910653677        3.7687805300        2.4088219086
 H          2.4700580801        4.6022599552        2.5073514214
 H          1.8525149986        3.0578169191        3.2199053532
 H          0.2118605584        4.9969241613        1.4315858345
 H         -0.3921972920        3.4493526946        2.1496894021
 H          2.0023246780        3.7223035170        0.2060425128
