  62
        -98.94114250
 C         -2.6420295691       -0.5548752333       -0.4905378319
 C         -3.1473060269        0.3168290522        0.5108386174
 C         -3.0583797802        1.7526797330        0.2346523282
 C         -2.5467326465        2.1725951662       -0.9360634447
 C         -2.3718701675        3.6028328565       -1.3669057235
 C         -1.0751627888        4.2392657005       -0.8470061856
 C         -1.0738314971        4.5806332016        0.6436496799
 H         -0.2115774832        5.2256747696        0.8234164451
 H         -1.9690023429        5.1542974584        0.8870561743
 C         -0.9732711267        3.3608214638        1.5707503862
 H         -0.6018375384        2.5002600859        1.0064761200
 H         -0.2352335078        3.5572629443        2.3525525861
 C         -2.2804446731        2.9832624900        2.2696083544
 H         -2.5702453523        3.7822167408        2.9560636240
 H         -2.1001100750        2.0801334988        2.8587410669
 C         -3.4545015863        2.7050761658        1.3216123303
 H         -4.2565449982        2.2380207690        1.8984157636
 H         -3.8239983452        3.6375286820        0.8958461636
 H         -0.2428112358        3.5635497686       -1.0614093826
 H         -0.9133374793        5.1610863718       -1.4107343580
 H         -2.3419217723        3.5993685446       -2.4585374541
 H         -3.2277328649        4.1949595005       -1.0421554650
 O         -2.1238385160        1.3090609071       -1.8931785109
 C         -2.0998545030       -0.0615545212       -1.6770393558
 O         -1.5859649022       -0.6961931712       -2.6223158828
 O         -3.6478511830       -0.0945945247        1.5916278816
 C         -2.6097580400       -2.0322898352       -0.1297544343
 C         -1.2894885280       -2.3166192290        0.5481954952
 C         -1.2236583359       -2.8188169508        1.8417631534
 C         -0.0041901476       -2.9650258434        2.4817182520
 C          1.1711926979       -2.5952961247        1.8522653446
 C          1.1129116798       -2.1031998129        0.5566055910
 C         -0.1037582652       -1.9874302214       -0.0934014386
 H         -0.1336512278       -1.5897469857       -1.0978670919
 N          2.3071250946       -1.6422825996       -0.0672188850
 S          2.6167280532       -0.0352440518        0.3856569304
 O          2.5683718830        0.0410108794        1.8234111024
 O          1.7426377747        0.8668176199       -0.3360453738
 C          4.2975673731        0.1538971847       -0.1762395976
 C          4.5481669647        0.7504765725       -1.3963014713
 C          5.8585152961        0.8465486718       -1.8386544578
 C          6.8886419488        0.3427733063       -1.0592542618
 C          6.6205514438       -0.2546748499        0.1635263367
 C          5.3131592587       -0.3526367718        0.6114874287
 H          5.0557399763       -0.8013319921        1.5563570631
 H          7.4243616444       -0.6440525933        0.7671655804
 H          7.9068004884        0.4179515464       -1.4070129046
 H          6.0690743655        1.3122016440       -2.7880351221
 H          3.7164980968        1.1339065753       -1.9661264031
 H          2.1988613922       -1.6381045430       -1.0750173306
 H          2.1226710503       -2.6584496911        2.3535266523
 H          0.0282653299       -3.3495961503        3.4897478404
 H         -2.1395996085       -3.0642741221        2.3590401094
 H         -3.4053266366       -2.1709650711        0.6148812256
 C         -2.8591354555       -2.9797744753       -1.2836953889
 C         -3.3493293887       -4.3648951797       -0.9894053507
 C         -4.2659412877       -3.3646145863       -1.6257193045
 H         -4.5253849471       -3.4857196536       -2.6664709236
 H         -5.0585534614       -2.9434396669       -1.0246697764
 H         -2.9786407053       -5.1792289680       -1.5924503206
 H         -3.5233507142       -4.6252949696        0.0435249281
 H         -2.1663550169       -2.8527613233       -2.1048479331
