  62
        -98.93747856
 C          2.4339422480        1.1367666566       -0.0574146637
 C          3.5203935082        0.7780058170        0.7762437847
 C          4.5056443322       -0.1619352464        0.2158413023
 C          4.3224477906       -0.6455853601       -1.0270340833
 C          5.1665471544       -1.5829350224       -1.8650771665
 C          6.2695498186       -2.4234898285       -1.2268635585
 C          5.7772052248       -3.4999346969       -0.2603015937
 H          5.2490402932       -4.2664591895       -0.8329489581
 H          6.6496844546       -3.9701067421        0.1986466196
 C          4.8360850200       -3.0181813714        0.8411419270
 H          4.5713344760       -3.8828480034        1.4558049711
 H          3.9105279090       -2.6456258111        0.3971313328
 C          5.4077482613       -1.9473833908        1.7684904134
 H          4.7027565805       -1.8181200048        2.5940625725
 H          6.3547903932       -2.2915942205        2.1885117735
 C          5.6274226515       -0.5650208677        1.1289100861
 H          5.6519857615        0.1777407981        1.9315136621
 H          6.5813083827       -0.5153917512        0.6093301279
 H          6.9997480335       -1.7823802176       -0.7419394550
 H          6.7876218230       -2.9288712039       -2.0465390304
 H          4.4580026947       -2.2467818868       -2.3704593845
 H          5.6154510778       -0.9600230958       -2.6467450129
 O          3.2560084009       -0.2724466452       -1.7926404485
 C          2.2880094854        0.6085955736       -1.3385327324
 O          1.3808250468        0.8306367359       -2.1629692338
 H         -0.8603926252        1.9259751541       -1.0834604635
 C         -0.9351388484        1.3288813345       -0.1882804831
 C          0.1120967386        1.3127033903        0.7191793094
 C         -0.0036499076        0.5170194360        1.8561656802
 C         -1.1374230985       -0.2420209231        2.0742354261
 C         -2.1759802572       -0.2332997317        1.1588795029
 C         -2.0691803568        0.5532472235        0.0203695822
 N         -3.1024466443        0.5428345220       -0.9293240692
 S         -4.6909523296        0.6940970198       -0.4229462088
 O         -5.4075459079        1.2062360016       -1.5705847103
 O         -4.7891444297        1.4691958004        0.7923448501
 C         -5.2071019697       -0.9830175752       -0.1194496598
 C         -5.0368628609       -1.9094974662       -1.1294318394
 C         -5.4404823072       -3.2172565597       -0.9129474003
 C         -6.0078841769       -3.5738754445        0.3014528809
 C         -6.1761452110       -2.6310984987        1.3038843857
 C         -5.7731844315       -1.3213587370        1.0940264422
 H         -5.8784313504       -0.5562726872        1.8467296751
 H         -6.6178276794       -2.9103730298        2.2469544512
 H         -6.3204586919       -4.5927837821        0.4670866262
 H         -5.3107924024       -3.9530186054       -1.6903278700
 H         -4.5936295989       -1.5925412629       -2.0588569843
 H         -2.9144494459        1.1038715937       -1.7467889597
 H         -3.0612091425       -0.8266949688        1.3193175409
 H         -1.2139003433       -0.8509171547        2.9622670346
 H          0.8141733440        0.4979165422        2.5631101694
 C          1.3866269770        2.0886037555        0.4960861321
 H          1.7690800027        2.4013779866        1.4771946725
 C          1.2154668754        3.3166381552       -0.3725581497
 C          0.4836428374        4.5047264115        0.1744306121
 C          1.9667401585        4.5667388480       -0.0306757784
 H          2.3512817179        5.1728483335       -0.8372480613
 H          2.6046071934        4.5443273727        0.8406311224
 H          0.1121158234        4.4375351577        1.1859300802
 H         -0.1526130111        5.0708505082       -0.4889430751
 H          1.0949505166        3.0866073974       -1.4242837942
 O          3.6681586120        1.2312262826        1.9426318001
