  62
        -98.93783266
 C          2.3125255801       -1.3405744896        0.1284049548
 C          3.2517958716       -0.8645740328       -0.8239405179
 C          4.1283037528        0.2339275809       -0.3955074459
 C          4.0001171236        0.7217868831        0.8513939303
 C          4.7557266549        1.8917327286        1.4142344900
 C          4.1539482765        3.2093619268        0.8850359229
 C          5.0884941971        4.0104177867       -0.0221904013
 H          4.4895376702        4.7879462431       -0.5011206203
 H          5.8406206593        4.5068108423        0.5945910008
 C          5.8228316652        3.2094627458       -1.1018109373
 H          6.2263463598        3.9329206604       -1.8133320354
 H          6.6786014976        2.6970269288       -0.6599109943
 C          4.9783668548        2.1835320233       -1.8686508573
 H          3.9226242317        2.4549357960       -1.8392492199
 H          5.2834881150        2.2079127900       -2.9167148608
 C          5.1438619347        0.7298454686       -1.3872656828
 H          6.1492834776        0.5918091791       -0.9803549291
 H          5.0424377264        0.0629246432       -2.2483249882
 H          3.2328397596        2.9740623522        0.3466123914
 H          3.8684918163        3.8428811871        1.7264317891
 H          5.8067576430        1.8150945291        1.1447676628
 H          4.6678758547        1.8436023760        2.4998293038
 O          3.0917681957        0.2408117816        1.7372772728
 C          2.2224657131       -0.7884309466        1.4055508111
 O          1.4517403494       -1.1014071952        2.3358082608
 O          3.3555509017       -1.3464907606       -1.9833490792
 C          1.3898157792       -2.4634558797       -0.3209458514
 C          0.0316000645       -1.8953819333       -0.6561422085
 C         -0.3447689060       -1.7033839349       -1.9809971309
 C         -1.5677824558       -1.1358104229       -2.2915886875
 C         -2.4364233444       -0.7421609516       -1.2892883033
 C         -2.0626102730       -0.9153204469        0.0366987596
 C         -0.8438649087       -1.5009654855        0.3457591397
 H         -0.5514965885       -1.6096281336        1.3792875622
 N         -2.9304206998       -0.4940290015        1.0637286633
 S         -3.4173178752        1.1155633116        1.0163336914
 O         -2.4438327774        1.9451951541        0.3426941825
 O         -3.7265334446        1.4664770095        2.3853671743
 C         -4.9320959295        1.0651954721        0.0798808812
 C         -5.0632559337        1.8268876959       -1.0646936341
 C         -6.2538357218        1.7723076980       -1.7730177341
 C         -7.2865454142        0.9625185692       -1.3258201079
 C         -7.1400460788        0.2062923177       -0.1722726195
 C         -5.9529288099        0.2567462383        0.5406549250
 H         -5.7985851789       -0.3109609087        1.4429780040
 H         -7.9455734172       -0.4216184037        0.1727731269
 H         -8.2112481794        0.9209274584       -1.8794808703
 H         -6.3693926910        2.3600726852       -2.6694865477
 H         -4.2306889129        2.4372821690       -1.3767395983
 H         -2.5797686109       -0.7173316305        1.9852385240
 H         -3.3877574548       -0.2928543822       -1.5232377832
 H         -1.8467533685       -0.9951976724       -3.3247128967
 H          0.3407823120       -1.9856795180       -2.7670127227
 H          1.8333845438       -2.8400056654       -1.2522066967
 C          1.3090727511       -3.6078022490        0.6687872061
 C          0.7884509066       -4.9330301110        0.2016915886
 C          2.2433730095       -4.7695119195        0.5208774937
 H          2.6331473290       -5.2327794292        1.4148692483
 H          2.9464742171       -4.7440463944       -0.2988028544
 H          0.1755900290       -5.5115811129        0.8755546250
 H          0.5041644412       -5.0185116503       -0.8361056598
 H          1.0659677070       -3.2963071790        1.6761492249
