  62
        -98.93991043
 C         -2.9007020848       -1.0824967482        0.2767739830
 C         -2.6461679619       -0.1289412680        1.3012299102
 C         -3.0380342477        1.2545067058        1.0208045595
 C         -3.7058590505        1.5355062689       -0.1124077345
 C         -4.1689376711        2.8968006190       -0.5546463043
 C         -3.0994995421        3.6846202837       -1.3243922591
 C         -1.9349062984        4.1972273966       -0.4754462197
 H         -1.3614923555        4.8885634112       -1.0961491715
 H         -2.3255973390        4.7639346469        0.3703625272
 C         -0.9922296521        3.0983801937        0.0368888971
 H         -1.1552141589        2.1790385132       -0.5328603378
 H          0.0493995989        3.3840250038       -0.1343477889
 C         -1.1351268798        2.7837862825        1.5263317412
 H         -0.4197362495        1.9925300484        1.7694379641
 H         -0.8647077250        3.6659651168        2.1110264961
 C         -2.5406026283        2.3239988195        1.9437709183
 H         -2.4802192782        1.9015364435        2.9493047582
 H         -3.2248684243        3.1721001905        1.9572153059
 H         -2.7119950101        3.0538866572       -2.1282590265
 H         -3.5917654772        4.5444505881       -1.7843104113
 H         -5.0229724887        2.7388773883       -1.2166826469
 H         -4.4972403279        3.4731036689        0.3099877203
 O         -4.0456023917        0.5747542787       -1.0082491022
 C         -3.5823664322       -0.7382059165       -0.8889569645
 O         -3.8727189626       -1.4452618519       -1.8708072194
 O         -2.0928320227       -0.4295278517        2.3914571153
 C         -2.2637320123       -2.4436102045        0.5137123855
 C         -0.7644601654       -2.2549561518        0.5543569202
 C          0.0289704184       -2.9243557942        1.4770218126
 C          1.3932670973       -2.6972336903        1.5282879783
 C          1.9904288607       -1.7890158846        0.6729859677
 C          1.2050539401       -1.1070336360       -0.2467629999
 C         -0.1564421197       -1.3587310600       -0.3134128105
 H         -0.7646293029       -0.8194254113       -1.0307128267
 N          1.8016416772       -0.1506814341       -1.0920857609
 S          2.5986473422        1.1171756421       -0.3156462129
 O          2.0921534673        1.3220911524        1.0198244211
 O          2.5095202247        2.2393740554       -1.2242229592
 C          4.2868807692        0.5551979856       -0.2490364420
 C          4.9263122676        0.2677976041       -1.4390998747
 C          6.2386136826       -0.1756307527       -1.4032937544
 C          6.8862406994       -0.3208526270       -0.1852763872
 C          6.2316042524       -0.0245407135        1.0004644222
 C          4.9181787328        0.4183332487        0.9715259733
 H          4.3664703278        0.6562501990        1.8671468688
 H          6.7366362998       -0.1372274487        1.9463318551
 H          7.9074572792       -0.6668436569       -0.1599112041
 H          6.7512197594       -0.4066361823       -2.3231731638
 H          4.3880250321        0.3989614208       -2.3629182685
 H          1.1613707180        0.2242502091       -1.7781410597
 H          3.0485236120       -1.5893236775        0.7220595193
 H          1.9966844288       -3.2214916996        2.2533952232
 H         -0.4339007222       -3.6032921051        2.1778905584
 H         -2.5746021058       -2.7559334533        1.5245811714
 C         -2.6870967792       -3.5363422093       -0.4518827040
 C         -1.8755788017       -3.9095984964       -1.6525089349
 C         -1.9616874533       -4.8485154635       -0.4885579729
 H         -2.5444453315       -5.7505468230       -0.5955910828
 H         -1.0827360117       -4.9573006618        0.1280001821
 H         -2.4064904241       -4.1464145660       -2.5615088552
 H         -0.9442883399       -3.3886249443       -1.8160797357
 H         -3.7632312608       -3.5731762969       -0.5734649102
