  62
        -98.93660171
 C          2.0574729986        1.5075884218       -0.0533229290
 C          1.6723975657        0.2731107470       -0.6271740438
 C          2.7633133417       -0.6824787315       -0.8773637225
 C          4.0318847597       -0.3250334086       -0.6094260170
 C          5.2288753429       -1.2150658294       -0.7746580393
 C          5.5321584126       -1.9834350799        0.5194180408
 C          4.3113382237       -2.6727295349        1.1288397536
 H          4.6510272123       -3.2074474475        2.0184953756
 H          3.6023679342       -1.9115235563        1.4626188376
 C          3.5976519739       -3.6509678471        0.1854630506
 H          4.2607155968       -3.9234144408       -0.6363755010
 H          3.3721240554       -4.5661608912        0.7368221137
 C          2.2736743782       -3.1341943753       -0.3811041502
 H          1.6472848112       -2.7673069320        0.4363824639
 H          1.7555633086       -3.9764831823       -0.8479342175
 C          2.3863825812       -2.0259493796       -1.4359484866
 H          3.0860182011       -2.3304483031       -2.2169329772
 H          1.4004895004       -1.8942071441       -1.8919121976
 H          6.3040500595       -2.7254391397        0.3071501249
 H          5.9304729795       -1.2798944143        1.2542072485
 H          5.0471318835       -1.9124285482       -1.5900741458
 H          6.0884921826       -0.5917738137       -1.0267505934
 O          4.3670878329        0.8902182631       -0.1041077145
 C          3.3927023364        1.8240135927        0.2025343132
 O          3.8315549753        2.8850295502        0.6917365774
 H         -1.7213194028        2.0630145590       -0.3848155611
 C         -1.4119639419        1.7633208747        0.5980818546
 C         -0.1131774890        1.9391101628        1.0467496574
 C          0.2027103589        1.4730124288        2.3254024580
 C         -0.7398278059        0.8545202559        3.1210042619
 C         -2.0356647962        0.6851651341        2.6647321114
 C         -2.3667792150        1.1437818485        1.3973665824
 N         -3.6861007162        1.0300855671        0.9207126431
 S         -4.0376587583        0.2964761027       -0.5421779234
 O         -3.3101730342        0.9371266060       -1.6053442559
 O         -5.4813542222        0.3518665290       -0.6322356767
 C         -3.5344335055       -1.4030894497       -0.3403553549
 C         -4.5065970310       -2.3444461688       -0.0595993634
 C         -4.1287269480       -3.6606397614        0.1479852668
 C         -2.7883627209       -4.0100849509        0.0796075945
 C         -1.8265221427       -3.0515435420       -0.1980386600
 C         -2.1955473052       -1.7313099950       -0.4101400092
 H         -1.4599634042       -0.9733901038       -0.6295477212
 H         -0.7826878181       -3.3169648501       -0.2521558808
 H         -2.4906897842       -5.0340809898        0.2423224012
 H         -4.8767448452       -4.4068620906        0.3627465188
 H         -5.5360438015       -2.0263748350       -0.0214123687
 H         -4.3399568854        0.6993016235        1.6164603359
 H         -2.7806032129        0.2072630340        3.2829368699
 H         -0.4655762460        0.5007919849        4.1034783476
 H          1.2150653053        1.6010753367        2.6859911231
 C          1.0251058885        2.5767726827        0.2887693920
 H          1.5368645778        3.2411873851        1.0054384347
 C          0.7890369268        3.4404524044       -0.9421026222
 C         -0.0807551050        3.1043281425       -2.1131106970
 C         -0.4358988354        4.2577608017       -1.2200898262
 H         -0.2966750800        5.2574417068       -1.6051176577
 H         -1.2839493177        4.1616294512       -0.5614493529
 H          0.3048136243        3.3255356945       -3.0988733828
 H         -0.6743953397        2.2044022772       -2.0879141227
 H          1.7318303720        3.9200100346       -1.2014414769
 O          0.4868162985       -0.0303863432       -0.9120425560
