  62
        -98.92660075
 C         -2.0997175164       -1.4693827294       -0.2136433906
 C         -1.6697710430       -0.1337276853       -0.0304000204
 C         -2.6205589644        0.7712439774        0.6423208702
 C         -3.8232699821        0.3104399705        1.0225545632
 C         -4.9301760542        1.0510068169        1.7296504503
 C         -5.2524279007        2.4717736382        1.2430430509
 C         -5.0154031382        2.7198489587       -0.2540991266
 H         -4.8526547637        1.7722823636       -0.7703546206
 H         -5.9108687724        3.1738014840       -0.6827877020
 C         -3.8381822490        3.6601243061       -0.5247369814
 H         -3.9511514264        4.0835219013       -1.5256819452
 H         -3.8835810685        4.4878872137        0.1864154054
 C         -2.4522313892        3.0189384425       -0.4576430225
 H         -2.3051277810        2.3637304923       -1.3201258289
 H         -1.7125999097        3.8203375640       -0.5276830693
 C         -2.1667372644        2.1937169540        0.8073087556
 H         -2.6106441515        2.6544640798        1.6865105622
 H         -1.0830409689        2.1527700614        0.9488955513
 H         -6.3017744860        2.6552013917        1.4800521081
 H         -4.6720198785        3.1928142395        1.8172672990
 H         -5.8123871727        0.4161158071        1.6176645707
 H         -4.6914005466        1.0834940702        2.7967274821
 O         -4.1998129727       -0.9844403085        0.8212385016
 C         -3.3565628400       -1.8982476096        0.2177486223
 O         -3.8340800018       -3.0472702176        0.1182442292
 O         -0.5512995477        0.3036108605       -0.3971515323
 C         -1.2193683447       -2.5278213159       -0.8720281324
 C          0.1148821747       -2.5603609410       -0.1678332272
 C          0.1736294744       -3.2869172389        1.0214269674
 C          1.3191486093       -3.3156498670        1.7933734853
 C          2.4475833534       -2.6205714653        1.3966915456
 C          2.4023360863       -1.8857922346        0.2213876924
 C          1.2486083711       -1.8614477407       -0.5545254290
 H          1.2471812504       -1.2548586938       -1.4431620437
 N          3.5538375621       -1.1818574160       -0.1821769888
 S          4.1527331534        0.0488578570        0.7926993232
 O          5.5957646593       -0.0215523061        0.7244444577
 O          3.5787349861       -0.0694151338        2.1099935548
 C          3.6209079187        1.5668685609        0.0146063507
 C          4.5702106215        2.4898014433       -0.3806773085
 C          4.1537778603        3.6669458329       -0.9815313523
 C          2.8012103056        3.8988046542       -1.1818314544
 C          1.8624226493        2.9599685809       -0.7834281158
 C          2.2703397785        1.7824865208       -0.1760730871
 H          1.5461515806        1.0425798816        0.1285920292
 H          0.8082972202        3.1214054796       -0.9448493159
 H          2.4763783413        4.8135110054       -1.6523964205
 H          4.8835115547        4.3967703649       -1.2935008938
 H          5.6102502576        2.2631330984       -0.2109276084
 H          3.5237319122       -0.8760585571       -1.1446393070
 H          3.3490252728       -2.6211642259        1.9877309844
 H          1.3349580804       -3.8857550365        2.7102405125
 H         -0.7075072148       -3.8246523778        1.3456540465
 H         -1.7161804559       -3.4808853370       -0.6331146891
 C         -1.2924206403       -2.4169347108       -2.3899149215
 C         -0.6993370139       -1.3143266349       -3.2127600547
 C         -0.1553758177       -2.7079087852       -3.3216685046
 H         -0.3705925177       -3.2664397193       -4.2206017269
 H          0.8094277827       -2.9278958343       -2.8933623087
 H         -1.2907758716       -0.9346577901       -4.0342469043
 H         -0.1330012938       -0.5474806541       -2.7105034123
 H         -2.2722200065       -2.7552367234       -2.7198609636
