  62
        -98.94078152
 C          1.7183777347        0.6368514355       -0.3838894902
 C          2.9562666011        0.9146425263       -1.0179092679
 C          4.1639214552        0.6911799538       -0.2124721962
 C          4.0342798202        0.3019400826        1.0686447104
 C          5.1771029106       -0.0147222831        1.9882279642
 C          5.5470109986       -1.5031383036        1.9202552962
 C          5.7197649171       -2.0327732387        0.4966190749
 H          6.0093059993       -3.0830299283        0.5732064794
 H          4.7549027217       -2.0026299413       -0.0147766687
 C          6.7601248770       -1.2757645720       -0.3407317648
 H          7.3827809299       -2.0027075862       -0.8664891643
 H          7.4163561814       -0.7015021397        0.3142518815
 C          6.1670028489       -0.3476819943       -1.4025993946
 H          5.4395216592       -0.8977160346       -2.0052092834
 H          6.9741466543       -0.0355399656       -2.0706787062
 C          5.4924478039        0.9248717096       -0.8747523320
 H          6.1728396447        1.4494825365       -0.2007893475
 H          5.2896193643        1.5738601810       -1.7318794829
 H          6.4708946606       -1.6550639986        2.4812700558
 H          4.7556679063       -2.0787857389        2.4057695524
 H          6.0354786342        0.5967242178        1.7166708274
 H          4.8759974955        0.2300295519        3.0081589307
 O          2.8307108464        0.1087369877        1.6626667347
 C          1.6416021537        0.2615921449        0.9586335035
 O          0.6240332727        0.0417116613        1.6395309948
 H         -2.0889934926        0.1325201594       -0.3684002802
 C         -1.8081940050        1.1317782218       -0.0819862609
 C         -0.5589104890        1.6293317812       -0.4132241583
 C         -0.2227412824        2.9167466005       -0.0006432446
 C         -1.1109866469        3.6789635460        0.7312464874
 C         -2.3632301577        3.1822487472        1.0495761611
 C         -2.7099247643        1.9016261936        0.6399745560
 N         -3.9626695346        1.3594909262        0.9597611761
 S         -4.7737052171        0.4160155215       -0.1543342934
 O         -4.5165572176        0.8494189197       -1.5085039072
 O         -6.1577339914        0.4597541721        0.2694127031
 C         -4.1571174723       -1.2361260420        0.0881264928
 C         -4.0079026735       -2.0590678624       -1.0106260306
 C         -3.5802578914       -3.3636353066       -0.8193368667
 C         -3.3104254382       -3.8197835560        0.4618065790
 C         -3.4646613514       -2.9800382958        1.5542146775
 C         -3.8962665460       -1.6762954262        1.3702379064
 H         -4.0221197760       -0.9974006827        2.1969283503
 H         -3.2482278845       -3.3362766233        2.5484737570
 H         -2.9744511186       -4.8341806940        0.6086879749
 H         -3.4578190904       -4.0174990671       -1.6684435170
 H         -4.2173085584       -1.6596022930       -1.9903184167
 H         -4.5845196584        1.9762990934        1.4611705749
 H         -3.0621895937        3.7778199840        1.6172171227
 H         -0.8323994646        4.6721137258        1.0507001028
 H          0.7538236106        3.3072970788       -0.2541003778
 C          0.4529239820        0.8350993931       -1.1985543422
 H          0.7736653413        1.4546079766       -2.0536056669
 C         -0.1170208561       -0.4480227476       -1.7843800046
 C          0.7803827894       -1.5916007257       -2.1489816801
 C         -0.1778830108       -1.7266694568       -1.0057594777
 H         -1.0432456259       -2.3606897587       -1.1315544185
 H          0.2105382297       -1.7168750768        0.0001661110
 H          1.8327034172       -1.4898984007       -1.9265043272
 H          0.5773729236       -2.1328521467       -3.0607106938
 H         -0.9439497467       -0.2494180225       -2.4605791610
 O          3.0457921327        1.3345853079       -2.2028570463
