  62
        -98.94456309
 C         -1.5810002902       -1.1799556494       -0.4531541092
 C         -1.5225901397        0.2184088306       -0.2332206399
 C         -2.6615761795        0.8023254014        0.4938319598
 C         -3.6648146398        0.0102371720        0.9103329102
 C         -4.9057531697        0.4860699328        1.6074641399
 C         -6.0170547495        0.8183203527        0.6014774797
 C         -5.5616870092        1.7124799819       -0.5518610707
 H         -4.8392690193        1.1658653614       -1.1620479604
 H         -6.4351468191        1.9023340519       -1.1792955209
 C         -4.9457952087        3.0492068419       -0.1156779314
 H         -5.3596102884        3.8456349218       -0.7377698718
 H         -5.2243407887        3.2664627825        0.9161778785
 C         -3.4237911387        3.1209538813       -0.2537496014
 H         -3.1188534283        4.1629141013       -0.1248356119
 H         -3.1325246787        2.8158353507       -1.2617805412
 C         -2.6265698590        2.2823749415        0.7532057991
 H         -2.9671641890        2.5017743922        1.7675181789
 H         -1.5747364889        2.5754538611        0.6813706289
 H         -6.8346828194        1.3021157732        1.1389480894
 H         -6.3929860098       -0.1173006974        0.1810843802
 H         -5.2530309100       -0.3082468568        2.2704798103
 H         -4.6661369794        1.3639015530        2.2047226695
 O         -3.6833412903       -1.3292218481        0.6922558808
 C         -2.6486755905       -1.9517970088        0.0158711612
 O         -2.7964819609       -3.1840056088       -0.1138867582
 O         -0.5903309094        0.9655064901       -0.6268474702
 C         -0.4798095404       -1.9630114402       -1.1554536487
 C          0.6035326194       -2.2900678801       -0.1541436885
 C          0.6971417089       -3.5727902798        0.3745723921
 C          1.6637544088       -3.8754601597        1.3162400223
 C          2.5501704191       -2.9058767898        1.7471162318
 C          2.4637474996       -1.6177465800        1.2274678912
 C          1.4982607097       -1.3195591202        0.2762961410
 H          1.4143359601       -0.3142547903       -0.0991413395
 N          3.3747569599       -0.6366882102        1.6319329607
 S          3.0118984605        0.9972343000        1.6363962499
 O          4.0100646807        1.5629162201        2.5228248696
 O          1.6375922306        1.2454873006        1.9996178697
 C          3.3816855108        1.5129515590       -0.0262257604
 C          4.6875582607        1.3613122383       -0.4521052202
 C          5.0231545209        1.7486032276       -1.7383803804
 C          4.0516894311        2.2811571075       -2.5733224407
 C          2.7478126111        2.4300836582       -2.1286299108
 C          2.4041417410        2.0450201689       -0.8409826607
 H          1.3918474110        2.1248657995       -0.4764577407
 H          1.9883926613        2.8391223881       -2.7761340911
 H          4.3112891012        2.5810397969       -3.5765583009
 H          6.0367577409        1.6337351770       -2.0872524003
 H          5.4120216705        0.9513862784        0.2317263600
 H          3.9818139298       -0.8972742400        2.3943571109
 H          3.3029400090       -3.1388820197        2.4849296220
 H          1.7246915884       -4.8740283595        1.7220744728
 H         -0.0100536613       -4.3251098498        0.0563307725
 H         -0.9429309208       -2.9114291302       -1.4606484583
 C          0.0716834598       -1.2820607910       -2.3911832791
 C          0.8361133996       -2.1026854718       -3.3845563786
 C         -0.5297318102       -1.5902589715       -3.7278734989
 H         -0.6176695599       -0.7916369118       -4.4489565593
 H         -1.3468103105       -2.2967820112       -3.7587461886
 H          1.6904426097       -1.6566656123       -3.8697365688
 H          0.9443707192       -3.1577628517       -3.1828509281
 H          0.3994110302       -0.2660147610       -2.2206132396
