  62
        -98.93302641
 C         -2.1076208362       -1.0321414615       -0.5245727819
 C         -3.3824374171       -1.0676621616        0.0895272779
 C         -4.1683010850        0.1794284504        0.0720790600
 C         -3.6424307901        1.2712290368       -0.5116761914
 C         -4.2353889233        2.6514244967       -0.6428447229
 C         -5.7162003289        2.7314851427       -1.0451216143
 C         -6.6296133366        3.2033472705        0.0875299960
 H         -6.1183105322        3.9953216260        0.6387726584
 H         -7.5306596839        3.6398028985       -0.3491107351
 C         -7.0710008314        2.1135743714        1.0629012748
 H         -7.7892788565        1.4557519441        0.5688221277
 H         -7.5927023088        2.6016293925        1.8895103624
 C         -5.9437395464        1.2521169300        1.6358215897
 H         -6.2984209961        0.8189903629        2.5735634800
 H         -5.0775147888        1.8668390635        1.8786292077
 C         -5.5253603355        0.0950219946        0.7161574304
 H         -5.5006544257       -0.8374987549        1.2884096570
 H         -6.2775255207       -0.0514490276       -0.0643269837
 H         -6.0498169982        1.7670600502       -1.4246958691
 H         -5.7994136651        3.4476337988       -1.8641739305
 H         -3.6191843009        3.1535147413       -1.3921854185
 H         -4.0763891002        3.1856978422        0.2973155500
 O         -2.4020024912        1.2645981073       -1.0774902936
 C         -1.6030500941        0.1341195396       -1.0976817640
 O         -0.5021616742        0.3038112556       -1.6565781640
 O         -3.8495851416       -2.1041637128        0.6338734909
 C         -1.2638030296       -2.2965925563       -0.4970574553
 C         -0.1056852630       -2.0542997845        0.4387540482
 C         -0.2978301677       -2.1976396207        1.8101430044
 C          0.7159758961       -1.8969761854        2.7003919138
 C          1.9395188684       -1.4381962611        2.2437947074
 C          2.1367463703       -1.2841415752        0.8786957187
 C          1.1244220174       -1.6061570814       -0.0157195294
 H          1.2855734443       -1.4646953137       -1.0726012646
 N          3.3748322921       -0.8054744030        0.4010205603
 S          3.9590498465        0.5918324971        1.1540869664
 O          4.6244888382        0.2036875394        2.3735558524
 O          2.9005206175        1.5666536388        1.3004781186
 C          5.1601981547        1.1463765317       -0.0395052573
 C          4.7283218177        1.9137581900       -1.1051151107
 C          5.6522862959        2.3223289362       -2.0538512012
 C          6.9838123371        1.9562030577       -1.9230575892
 C          7.4012754956        1.1853362440       -0.8485816614
 C          6.4827208411        0.7736267501        0.1042024335
 H          6.7596597440        0.1792607580        0.9590959411
 H          8.4373461163        0.9043837725       -0.7502525258
 H          7.6996536869        2.2763503093       -2.6635656769
 H          5.3295838611        2.9224000828       -2.8895243145
 H          3.6847256907        2.1824075208       -1.1643182244
 H          3.3431864573       -0.6622553075       -0.6003945981
 H          2.7325820008       -1.1765639953        2.9257316875
 H          0.5522063138       -2.0125839151        3.7614653202
 H         -1.2616963142       -2.5298415492        2.1702378082
 H         -1.9080771456       -3.0662334992       -0.0518886034
 C         -0.8538018101       -2.7450089431       -1.8836563477
 C         -0.3108136151       -4.1288823667       -2.0738911364
 C         -1.6738745185       -3.7811176855       -2.5897583922
 H         -1.8142458445       -3.6863913534       -3.6560864432
 H         -2.5343704984       -4.1762678497       -2.0701729865
 H          0.4863380752       -4.2774496171       -2.7859742000
 H         -0.2445261887       -4.7599888839       -1.2006629475
 H         -0.4398092154       -1.9483316180       -2.4893132619
