  62
        -98.93669328
 C         -1.7346577195       -0.7887033872       -0.1378412545
 C         -2.8651696043       -0.8968363458        0.7123374730
 C         -4.0845822883       -0.1704978522        0.3159790833
 C         -4.0597428664        0.5763490936       -0.8019918388
 C         -5.1624671811        1.4000149614       -1.4172342965
 C         -6.0014935097        2.2561008334       -0.4561925262
 C         -7.4303274077        1.7416549462       -0.2724650054
 H         -8.0643389271        2.5751840434        0.0380094595
 H         -7.8012962506        1.3931472738       -1.2386215444
 C         -7.5916912887        0.6289527508        0.7617915671
 H         -7.4605681961        1.0450104083        1.7631034395
 H         -8.6187128572        0.2622821851        0.6946607656
 C         -6.6366679293       -0.5558068157        0.6028084100
 H         -6.5206789041       -0.8142034033       -0.4491673472
 H         -7.0913843796       -1.4185368635        1.0943073019
 C         -5.2591074436       -0.3268826463        1.2426468857
 H         -5.2972334357        0.5372303376        1.9123954986
 H         -5.0002379840       -1.1829302981        1.8735164774
 H         -5.4993192490        2.3327423743        0.5070740693
 H         -6.0576181264        3.2638224947       -0.8712661709
 H         -4.6629833597        2.0423174768       -2.1462708645
 H         -5.8157297504        0.7338935985       -1.9864708602
 O         -2.9489719879        0.6620340722       -1.5853240254
 C         -1.7728382137       -0.0058342062       -1.2903262692
 O         -0.8697803664        0.1959795019       -2.1285466018
 O         -2.8593623239       -1.5894640176        1.7652555193
 C         -0.4983569896       -1.5696540338        0.2744167259
 C          0.5321351519       -0.6922652713        0.9436616635
 C          0.9533539874       -0.9449635861        2.2436082313
 C          1.9309888805       -0.1624617292        2.8342999028
 C          2.5082488827        0.8860589090        2.1410804079
 C          2.0867294524        1.1506246409        0.8445296057
 C          1.1127282729        0.3615488040        0.2522323319
 H          0.7921776036        0.5728441586       -0.7570182872
 N          2.6832746181        2.2059116307        0.1209690357
 S          4.3398409830        2.0521079969       -0.0965617622
 O          5.0150685415        2.4634053575        1.1088293939
 O          4.6536743099        2.8088239864       -1.2877751526
 C          4.5854435531        0.3061251799       -0.3666527861
 C          5.1482883371       -0.4713324809        0.6246099256
 C          5.2548628378       -1.8380268599        0.4229541090
 C          4.7939723847       -2.4003355906       -0.7569512945
 C          4.2312348364       -1.6051817480       -1.7435375733
 C          4.1211480126       -0.2386165940       -1.5473594457
 H          3.6898700374        0.4089739187       -2.2944481275
 H          3.8722413613       -2.0426733213       -2.6615642233
 H          4.8740692175       -3.4651591646       -0.9097289687
 H          5.6913832447       -2.4598456109        1.1876219085
 H          5.4919347221        0.0069610874        1.5269398101
 H          2.2344553152        2.3642558493       -0.7706386830
 H          3.2777201927        1.5017580207        2.5782538912
 H          2.2477876748       -0.3715369744        3.8445185046
 H          0.5019825072       -1.7563621559        2.7953371824
 H         -0.8552560699       -2.2930452411        1.0193555763
 C          0.1397331409       -2.3331376346       -0.8712101417
 C          1.0246026652       -3.5012105211       -0.5607344478
 C         -0.3234700530       -3.7244846673       -1.1764685019
 H         -0.3782778756       -4.0328857076       -2.2097073902
 H         -1.1066384943       -4.1373979928       -0.5574089076
 H          1.9011439256       -3.6565630711       -1.1695914365
 H          1.1572021473       -3.7649614844        0.4772405525
 H          0.4094205182       -1.7033890324       -1.7087258652
