  62
        -98.94624255
 C         -1.7807828302       -1.3142251446       -0.0644769451
 C         -2.7869208099       -0.6953421807        0.7126870916
 C         -3.3266418338        0.5634788866        0.1799337534
 C         -2.8459110482        1.0464094071       -0.9806298407
 C         -3.2509698205        2.3542068234       -1.5968572051
 C         -2.3442948375        3.4996321743       -1.1227040627
 C         -2.1408439336        3.5389079874        0.3917050927
 H         -1.6034638436        2.6397556481        0.7042005033
 H         -1.4940583037        4.3910343127        0.6134844220
 C         -3.4403648179        3.6571535808        1.2007500575
 H         -4.2474917193        4.0041995531        0.5546153669
 H         -3.3015626610        4.4105843949        1.9790784140
 C         -3.8729454782        2.3672715764        1.9003514782
 H         -3.0393806053        1.9700716341        2.4859726697
 H         -4.6741108355        2.6139115057        2.6021562127
 C         -4.3934628211        1.2531813526        0.9829576270
 H         -4.8369026589        0.4813705965        1.6190858079
 H         -5.1734283588        1.6495163539        0.3298968258
 H         -2.7774158699        4.4444656285       -1.4555887619
 H         -1.3648952852        3.3931544559       -1.5944787681
 H         -3.1720994911        2.2638440130       -2.6814313174
 H         -4.2857780720        2.5672940199       -1.3359904039
 O         -1.8874718621        0.4165915165       -1.7056323497
 C         -1.3197731469       -0.7720603891       -1.2651990863
 O         -0.4399737211       -1.2304632575       -2.0135209120
 H         -0.0081174414       -0.4988690080        1.6435393194
 C          0.7504657353       -1.1708305104        1.2600836308
 C          0.3565445698       -2.3370968107        0.6145565417
 C          1.3414619123       -3.1903324351        0.1366870894
 C          2.6806821347       -2.8689549375        0.2841007740
 C          3.0667082468       -1.6970416768        0.9072892557
 C          2.0884366556       -0.8430613692        1.4009085888
 N          2.4674062806        0.3657322742        2.0185641140
 S          3.4736811772        1.3623785037        1.1197459146
 O          4.8347403964        0.9090880447        1.2609976779
 O          3.2029188360        2.7018381025        1.5934159476
 C          2.9435444408        1.1705270533       -0.5717223802
 C          3.7666732891        0.5357216809       -1.4783634606
 C          3.3200390028        0.3589021835       -2.7778800286
 C          2.0644962053        0.8153750914       -3.1445159567
 C          1.2504480892        1.4541984517       -2.2227336561
 C          1.6897086678        1.6311754774       -0.9218927353
 H          1.0789543825        2.1239016705       -0.1804819767
 H          0.2673072729        1.7901304331       -2.5111563501
 H          1.7088729437        0.6670643285       -4.1515535930
 H          3.9483316865       -0.1401648878       -3.4979248250
 H          4.7353940374        0.1957214219       -1.1504193881
 H          1.6831452856        0.8949927551        2.3718569323
 H          4.1037679416       -1.4241915306        1.0172416477
 H          3.4348676649       -3.5384514328       -0.1000408101
 H          1.0618618678       -4.1024540417       -0.3638867662
 C         -1.1231058900       -2.5835470352        0.4471480130
 H         -1.5602466045       -2.7641139907        1.4405027277
 C         -1.4480411662       -3.7588019480       -0.4494609292
 C         -1.4821751580       -5.1484645404        0.1109497671
 C         -2.7584933569       -4.4631264399       -0.2716811833
 H         -3.2853558496       -4.8026153109       -1.1507635275
 H         -3.4082087291       -4.1105514475        0.5161936617
 H         -1.1348584579       -5.9628507733       -0.5067091861
 H         -1.2681231856       -5.2697810212        1.1620987279
 H         -1.0869180639       -3.6212764192       -1.4622559972
 O         -3.2040402385       -1.1636469310        1.8073135345
