  62
        -98.93841986
 C         -2.5336199880       -0.1752306602        0.0867073796
 C         -2.2947079223       -1.2282297752       -0.8222144429
 C         -1.6268294174       -2.4327019346       -0.2954062616
 C         -1.3006920246       -2.4704568060        1.0102592597
 C         -0.5583185448       -3.5443635436        1.7614140448
 C          0.9492754155       -3.5115991548        1.4765294824
 C          1.3183539452       -3.4601460150       -0.0032882124
 H          0.9447618429       -2.5264297097       -0.4299683255
 H          2.4095598204       -3.4160302636       -0.0680029866
 C          0.8458941445       -4.6468614564       -0.8414098703
 H          1.3034798232       -4.5402964916       -1.8282521392
 H          1.2236895395       -5.5701770443       -0.3968077675
 C         -0.6676805032       -4.7793273913       -1.0385521777
 H         -1.1421075766       -5.2549377795       -0.1840036900
 H         -0.8268684844       -5.4446713177       -1.8920556497
 C         -1.3798649666       -3.4708969299       -1.3636154547
 H         -2.3680385896       -3.7010467400       -1.7803787228
 H         -0.8409026864       -2.9566819990       -2.1686612827
 H          1.4069162385       -4.3874492423        1.9410943386
 H          1.3619485592       -2.6139751644        1.9444902575
 H         -0.7142895021       -3.3443773443        2.8239701804
 H         -0.9716326318       -4.5238582817        1.5405868179
 O         -1.5966259296       -1.4482306901        1.8630060109
 C         -2.1611087329       -0.2666872976        1.4273631473
 O         -2.3008116516        0.5996715272        2.3130811533
 O         -2.6108559845       -1.1628372773       -2.0443766622
 C         -3.0657108440        1.1453751074       -0.4365983572
 C         -2.0039722994        2.2084652984       -0.2737421110
 C         -2.2823268459        3.5347702312        0.0274219108
 C         -1.2529219518        4.4530709635        0.1605415785
 C          0.0680924175        4.0699885756        0.0240321976
 C          0.3569578944        2.7417288785       -0.2747857281
 C         -0.6761814568        1.8407073171       -0.4549191859
 H         -0.4384957429        0.8211916972       -0.7221431085
 N          1.6918208186        2.2949083193       -0.3429531144
 S          2.0431086136        0.6570346878       -0.3771950078
 O          1.7656267432        0.0791533230       -1.6772993333
 O          1.4180553916        0.0342054582        0.7603865208
 C          3.8070866065        0.7334625347       -0.1290203342
 C          4.6648727165        0.5304746489       -1.1926502596
 C          6.0319066082        0.6189237637       -0.9790313130
 C          6.5149114661        0.9097192012        0.2876022705
 C          5.6415459304        1.1093166157        1.3468420778
 C          4.2744547312        1.0212930286        1.1393559940
 H          3.5565544833        1.1594466595        1.9314688293
 H          6.0201769929        1.3321343065        2.3313597287
 H          7.5786398521        0.9785897226        0.4518117569
 H          6.7129087287        0.4608082526       -1.7997075772
 H          4.2427749361        0.2995872227       -2.1575283169
 H          2.3118723010        2.8602562970       -0.9026383288
 H          0.8691946456        4.7800873332        0.1534661363
 H         -1.4854882333        5.4819371739        0.3898447545
 H         -3.3046566184        3.8495056382        0.1610428585
 H         -3.2307731185        0.9883133077       -1.5142236790
 C         -4.3838551549        1.5104680141        0.2124764683
 C         -5.4173112718        2.2822938812       -0.5510985570
 C         -5.6332063785        0.8291960319       -0.2573509106
 H         -6.3758260324        0.5521650561        0.4755026038
 H         -5.5340635110        0.1215753275       -1.0677521670
 H         -6.0176698537        3.0045904860       -0.0188873223
 H         -5.1837830156        2.5617557263       -1.5674750682
 H         -4.2831664601        1.6956342281        1.2757767070
