  62
        -98.93906853
 C         -2.4995671048       -0.9803959331       -0.2430794601
 C         -2.3728403283        0.4289271966       -0.1848479984
 C         -3.4671270311        1.1392407352        0.4912695072
 C         -4.4815362873        0.4480939909        1.0405098128
 C         -5.6515984220        1.0300206866        1.7863029706
 C         -6.7943263416        1.5090541018        0.8804510524
 C         -6.5104458112        2.7923289463        0.0987699870
 H         -7.4612071104        3.1294256994       -0.3189388870
 H         -6.1644276957        3.5654344395        0.7855353914
 C         -5.5001283433        2.6266207080       -1.0449446961
 H         -5.8812912566        3.1205564448       -1.9416056404
 H         -5.3928137345        1.5663331415       -1.2851363077
 C         -4.1169919637        3.2113299526       -0.7587755140
 H         -3.4742157957        3.0060478883       -1.6184571318
 H         -4.1935463244        4.2950831337       -0.6464768425
 C         -3.4349477862        2.6381072468        0.4904298821
 H         -2.3869540849        2.9472234724        0.4826345055
 H         -3.9082742359        3.0293568368        1.3906126175
 H         -7.6642255665        1.6823278679        1.5181848922
 H         -7.0477739826        0.7063066113        0.1841539794
 H         -6.0335341401        0.2361602490        2.4318197661
 H         -5.3127142390        1.8547381875        2.4139554136
 O         -4.5484036665       -0.9092842991        0.9948276218
 C         -3.5755499406       -1.6496348574        0.3467336679
 O         -3.7766361240       -2.8809170407        0.3625461498
 H          0.7331283349       -0.1970576985       -0.9230900176
 C          0.8041464114       -0.9666540338       -0.1706043827
 C         -0.2213329152       -1.8901177178       -0.0377429515
 C         -0.1245762944       -2.8550021256        0.9604079862
 C          0.9720214944       -2.8914598836        1.8017007754
 C          1.9889997803       -1.9616447263        1.6737871428
 C          1.8971236453       -0.9888749791        0.6873011014
 N          2.9017133044       -0.0086211133        0.5730889350
 S          4.5083765295       -0.5244068346        0.5889443831
 O          4.7020387235       -1.5900256503       -0.3703704466
 O          4.8792905623       -0.8305473033        1.9478976603
 C          5.3409305062        0.9567438332        0.0541520378
 C          5.7131096948        1.0875446500       -1.2700479941
 C          6.3358438519        2.2565938189       -1.6784771524
 C          6.5705998159        3.2701894013       -0.7617097659
 C          6.1909846628        3.1238916269        0.5643873772
 C          5.5691957957        1.9572641091        0.9796326899
 H          5.2642292666        1.7960309980        2.0003549734
 H          6.3773174405        3.9136449052        1.2742165096
 H          7.0550990983        4.1789091133       -1.0823691456
 H          6.6345539655        2.3724510116       -2.7079006379
 H          5.5178818899        0.2705887607       -1.9462213939
 H          2.7317859525        0.6055089765       -0.2122858000
 H          2.8501735553       -1.9800444742        2.3219153398
 H          1.0366987073       -3.6499405850        2.5676758877
 H         -0.9265952005       -3.5713372222        1.0742232474
 C         -1.4503718865       -1.8536340420       -0.9145503756
 H         -1.8745558255       -2.8663019258       -0.9353413672
 C         -1.1654042429       -1.4203273917       -2.3379570729
 C         -0.4127701970       -2.3468369626       -3.2433811216
 C         -1.8745729098       -2.1035663343       -3.4665692835
 H         -2.1752111760       -1.5127266447       -4.3188417407
 H         -2.5679979519       -2.8936533099       -3.2173153724
 H          0.2923117363       -1.9261481804       -3.9439073839
 H         -0.1122879148       -3.3020217227       -2.8393285730
 H         -0.9881504326       -0.3576887711       -2.4402550136
 O         -1.4090290243        1.0774572625       -0.6693874023
