  62
        -98.94143469
 C         -2.3096270687       -1.0963281242       -0.5737034009
 C         -3.6122743651       -0.9370377794       -0.0361599465
 C         -4.3155289253        0.2956029033       -0.4045113396
 C         -3.7134369816        1.1918453648       -1.2071923760
 C         -4.3044211138        2.4904581159       -1.6848498344
 C         -4.1511402820        3.6479812625       -0.6886320282
 C         -5.0483829473        3.5653843028        0.5469227096
 H         -4.9996684918        4.5366558667        1.0432147131
 H         -6.0816001074        3.4104124154        0.2346520610
 C         -4.6437872380        2.4780264812        1.5523243409
 H         -3.6167368929        2.1609495879        1.3541349290
 H         -4.6579595202        2.8929737541        2.5627870269
 C         -5.5512956726        1.2476795511        1.5554176063
 H         -5.1506840755        0.5297718192        2.2756277860
 H         -6.5528487119        1.5325128085        1.8850879645
 C         -5.6658465785        0.5430660559        0.1973252519
 H         -6.2827867853        1.1317466866       -0.4810420170
 H         -6.1430619595       -0.4273073062        0.3540488059
 H         -3.1054354752        3.7044801571       -0.3763509397
 H         -4.3886369606        4.5710458479       -1.2225079667
 H         -5.3595048535        2.3486624578       -1.9202845816
 H         -3.7745690630        2.7540976353       -2.6026559798
 O         -2.4644181344        1.0012606974       -1.7068220175
 C         -1.7228378666       -0.1283876959       -1.3890441085
 O         -0.5884653905       -0.1451607105       -1.9054072380
 O         -4.1620359523       -1.7887078788        0.7113681013
 C         -1.5268458862       -2.3402120805       -0.1838009062
 C         -0.4138325871       -1.9076171149        0.7380558082
 C         -0.6893568649       -1.6999748318        2.0868851837
 C          0.2847860609       -1.2164928402        2.9401310231
 C          1.5512650086       -0.9210263828        2.4658714237
 C          1.8318614907       -1.1162889931        1.1207209430
 C          0.8582449641       -1.6210654560        0.2687058473
 H          1.0844162339       -1.7511598685       -0.7777079607
 N          3.1149204518       -0.8080742720        0.6221714551
 S          3.7249251179        0.7089194872        1.0547158872
 O          4.3027111584        0.6041987076        2.3722039412
 O          2.7087317908        1.7257784898        0.8945975150
 C          5.0161717814        0.9167281697       -0.1550007394
 C          4.6984899384        1.4815648975       -1.3758560283
 C          5.6948328915        1.6193944219       -2.3293443351
 C          6.9831727825        1.1890987396       -2.0483634087
 C          7.2855351520        0.6223122543       -0.8192841729
 C          6.2943872261        0.4825114275        0.1392878017
 H          6.4821360454        0.0558872291        1.1106394435
 H          8.2885075277        0.2902535819       -0.6051740366
 H          7.7558615413        1.2984812572       -2.7928409676
 H          5.4617120976        2.0605402078       -3.2851906557
 H          3.6849160664        1.8087512005       -1.5492597152
 H          3.1454932104       -0.9126949731       -0.3840217491
 H          2.3153534718       -0.5216368551        3.1132304647
 H          0.0564479277       -1.0596756653        3.9838885759
 H         -1.6856271590       -1.9050261905        2.4537858851
 H         -2.2296330426       -2.9554076899        0.3938240056
 C         -1.0602077841       -3.1315427636       -1.3869523555
 C         -0.5611960897       -4.5313570342       -1.1926666606
 C         -1.8798649167       -4.2919300950       -1.8624986437
 H         -1.9585285542       -4.4643040171       -2.9254244611
 H         -2.7815833836       -4.5242765338       -1.3152694240
 H          0.2671597167       -4.8722739775       -1.7944695834
 H         -0.5664735269       -4.9248917442       -0.1875219663
 H         -0.5831314451       -2.5225559031       -2.1448117770
