  62
        -98.94523634
 C          2.4574018585       -1.2246201738        0.0847835250
 C          3.4863871091       -0.7538899486       -0.7711963993
 C          4.3058828850        0.3453748916       -0.2524395209
 C          4.0585427559        0.8390494513        0.9742990427
 C          4.8126760634        1.9519975247        1.6497242071
 C          4.3327930949        3.3558520984        1.2561174040
 C          4.7161162722        3.8022149790       -0.1554582428
 H          4.5119504028        4.8729144273       -0.2182171918
 H          5.7883613472        3.6658516504       -0.2995503614
 C          3.9484733098        3.0877959417       -1.2766562358
 H          3.0567176547        2.6109301141       -0.8619361650
 H          3.6042767584        3.8232140167       -2.0073656497
 C          4.7637078410        2.0415721908       -2.0370798632
 H          5.5822662038        2.5313538511       -2.5689566375
 H          4.1113562765        1.5734658423       -2.7784383770
 C          5.3497208673        0.9321176587       -1.1540799327
 H          5.7146967069        0.1333988689       -1.8041947689
 H          6.1844726811        1.3174793166       -0.5693426675
 H          4.7686545819        4.0606075319        1.9680790120
 H          3.2466796168        3.3983104233        1.3700177954
 H          5.8775860249        1.8565921838        1.4360923301
 H          4.6595805858        1.8245378160        2.7235480489
 O          3.0720375408        0.3517824597        1.7717187642
 C          2.2325485757       -0.6674652922        1.3436427081
 O          1.3601920180       -0.9798616142        2.1784854349
 O          3.7104213630       -1.2346312537       -1.9132151889
 C          1.5525496620       -2.3274633093       -0.4424523187
 C          0.2148589023       -1.7066704445       -0.7608068797
 C          0.0140991270       -1.1109354454       -2.0028687209
 C         -1.1712579435       -0.4604067518       -2.2902199959
 C         -2.1755875348       -0.3776825587       -1.3412468148
 C         -1.9771816409       -0.9528360840       -0.0938113847
 C         -0.7977796053       -1.6305341724        0.1832297163
 H         -0.6508056748       -2.0589179534        1.1622020056
 N         -2.9823234693       -0.8465277303        0.8862275919
 S         -3.5599784169        0.6980353252        1.2160263896
 O         -2.5766837554        1.7138277306        0.9165795090
 O         -4.0399257596        0.6445831281        2.5799824599
 C         -4.9583950736        0.8595835795        0.1235137821
 C         -5.9572241525       -0.0912589803        0.2022243404
 C         -7.0547257568        0.0199824145       -0.6362982075
 C         -7.1363325898        1.0757562573       -1.5321804763
 C         -6.1273158225        2.0243603987       -1.5963994172
 C         -5.0261536628        1.9183013364       -0.7607415097
 H         -4.2147362475        2.6286431638       -0.7786771134
 H         -6.1922797534        2.8447801005       -2.2929604014
 H         -7.9913271913        1.1600160655       -2.1842241087
 H         -7.8415913696       -0.7154326455       -0.5888990554
 H         -5.8562419242       -0.8926297318        0.9148214022
 H         -2.7385502867       -1.3123559414        1.7493934566
 H         -3.0971521509        0.1398838465       -1.5519930000
 H         -1.3141328932       -0.0074229902       -3.2595100545
 H          0.8091734570       -1.1498094458       -2.7342487400
 H          2.0118629367       -2.6502019658       -1.3862871485
 C          1.4707113635       -3.5174483400        0.4896410775
 C          0.8977651750       -4.8043919758       -0.0218869151
 C          2.3665523824       -4.6948292274        0.2530508130
 H          2.7724246952       -5.2117427670        1.1097159877
 H          3.0424369834       -4.6475574684       -0.5880848649
 H          0.2925695252       -5.4004581935        0.6437858160
 H          0.5753951090       -4.8292413152       -1.0517494599
 H          1.2743335018       -3.2485615736        1.5200532236
