  62
        -98.93634184
 C          1.9247032428        1.1966366610       -0.1633519111
 C          3.0428242157        1.1490720112        0.7062268590
 C          4.2556097215        0.4598413782        0.2259547548
 C          4.2418284094       -0.0832609839       -1.0051148351
 C          5.3310790722       -0.8540729349       -1.7030764831
 C          5.4805092216       -2.2878138639       -1.1712401826
 C          5.4628301233       -2.4124502283        0.3497741496
 H          4.5228875744       -2.0098050119        0.7318499902
 H          5.4816632802       -3.4776165227        0.5953976037
 C          6.6323480983       -1.7456438567        1.0702882681
 H          7.5693634965       -2.1638643208        0.6960180121
 H          6.5515439696       -2.0076640283        2.1283531523
 C          6.7017663161       -0.2201591752        0.9653247383
 H          7.1092281861        0.0916731222        0.0072666269
 H          7.4048521715        0.1262711929        1.7283522227
 C          5.3811972746        0.4951800558        1.2313006866
 H          4.9584717596        0.1320861754        2.1750992104
 H          5.5878585462        1.5587534835        1.4009648390
 H          6.4102335960       -2.7048032955       -1.5622226331
 H          4.6525527240       -2.8832558876       -1.5641651563
 H          6.2725004861       -0.3171418036       -1.6338265964
 H          5.0527306515       -0.9024088154       -2.7583018709
 O          3.1425991217       -0.0206672724       -1.8074410998
 C          1.9672811902        0.6055077750       -1.4257967828
 O          1.0725104785        0.5530731488       -2.2913484258
 O          3.0359309229        1.6731951593        1.8529542636
 C          0.7009265872        1.9411488183        0.3414487794
 C         -0.3284903275        1.0089112211        0.9266128953
 C         -0.8735711042        1.2479169827        2.1828112583
 C         -1.8325899636        0.3995630956        2.7092883203
 C         -2.2717091601       -0.6986929932        1.9924892177
 C         -1.7356643364       -0.9441617133        0.7344181435
 C         -0.7720427643       -0.0944519792        0.2100488550
 H         -0.3617078942       -0.2893628751       -0.7697804248
 N         -2.1865809103       -2.0484056913       -0.0111372716
 S         -3.8443824286       -2.2519512973       -0.1427118939
 O         -4.3435257794       -2.8904864342        1.0499207981
 O         -4.0465798141       -2.9750537677       -1.3779480544
 C         -4.5028752021       -0.5985372014       -0.2636067697
 C         -5.2746955851       -0.0846540344        0.7585167827
 C         -5.7291279888        1.2210034831        0.6631406545
 C         -5.4036719540        1.9863898551       -0.4456824399
 C         -4.6332096784        1.4535142944       -1.4678480223
 C         -4.1746007347        0.1492843368       -1.3771893109
 H         -3.5734563236       -0.2952563050       -2.1550624892
 H         -4.3794001571        2.0501893521       -2.3291387491
 H         -5.7509115295        3.0048904911       -0.5165226450
 H         -6.3307599894        1.6374102934        1.4548303594
 H         -5.5048907436       -0.7145036033        1.6020777071
 H         -1.7394655535       -2.1315729217       -0.9126943989
 H         -3.0127015755       -1.3743304845        2.3877158664
 H         -2.2423094735        0.5943346533        3.6883571008
 H         -0.5300747194        2.0983940752        2.7530163907
 H          1.0825102223        2.5655516483        1.1645943552
 C          0.1144684386        2.8844295230       -0.7016441042
 C         -1.1759937696        2.6406403137       -1.4182258677
 C         -1.0933842489        3.7131369252       -0.3766973698
 H         -1.1105994530        4.7459177628       -0.6894199622
 H         -1.5825353540        3.5254908126        0.5671189807
 H         -1.2270555401        2.9226111501       -2.4587640398
 H         -1.7310550721        1.7466078940       -1.1830805867
 H          0.8954814346        3.3697558249       -1.2793331603
