  62
        -98.93564234
 C         -2.5599890332       -1.3176233296        0.1825585996
 C         -2.6272189163       -0.2737052957       -0.7701539159
 C         -3.8470262226        0.5494915580       -0.7376505162
 C         -4.8075988192        0.2657402321        0.1607426779
 C         -6.0668675870        1.0578106193        0.3708396689
 C         -5.7551877986        2.3412346009        1.1670682247
 C         -5.9777266183        3.6368106813        0.3865430330
 H         -7.0500717971        3.8333946350        0.3235316192
 H         -5.5275193877        4.4473180470        0.9635978711
 C         -5.4120613377        3.6639138249       -1.0366395843
 H         -6.0874460458        3.1342082242       -1.7101461431
 H         -5.4088331006        4.7078502675       -1.3573099754
 C         -3.9989774061        3.0917037716       -1.2084714475
 H         -3.4467107329        3.1389247512       -0.2696978206
 H         -3.4633513252        3.7193260055       -1.9235706346
 C         -3.9522934063        1.6523704596       -1.7544161429
 H         -4.8205862062        1.4766495708       -2.3955939860
 H         -3.0576784334        1.5438566561       -2.3748268304
 H         -6.3748809583        2.3721445039        2.0645427007
 H         -4.7175148186        2.2915684559        1.5037487431
 H         -6.5123431555        1.3022399061       -0.5908783493
 H         -6.7595437700        0.4250718160        0.9261040857
 O         -4.7069029098       -0.7519743064        1.0558409650
 C         -3.5855322064       -1.5633852623        1.0944265545
 O         -3.6194320755       -2.4505804397        1.9712485731
 H          1.0364726507       -2.0837057939       -1.1783712622
 C          1.0196949604       -1.4354821551       -0.3161625626
 C         -0.1042541005       -1.3865460609        0.4915650273
 C         -0.0878421403       -0.5454243799        1.6017102072
 C          1.0163209076        0.2353462361        1.8812894572
 C          2.1301243889        0.1982342230        1.0597533244
 C          2.1299296217       -0.6443417964       -0.0421856585
 N          3.2481897059       -0.6792212469       -0.8883072156
 S          4.7863384543       -0.7493402659       -0.2295530299
 O          5.6122350611       -1.3260688532       -1.2678550694
 O          4.7869200760       -1.4318188747        1.0436208987
 C          5.2431096514        0.9575616710       -0.0085407284
 C          5.1456436802        1.8062485358       -1.0937681563
 C          5.5092646036        3.1343724891       -0.9392712960
 C          5.9655259457        3.5883214196        0.2893724463
 C          6.0619354650        2.7227941683        1.3680691304
 C          5.6983512311        1.3932422923        1.2204119408
 H          5.7514348504        0.6860123252        2.0329236295
 H          6.4176219284        3.0773538971        2.3221558171
 H          6.2477069774        4.6227259014        0.4066377289
 H          5.4351160854        3.8104896659       -1.7758306496
 H          4.7887473591        1.4156523542       -2.0321068616
 H          3.1519767706       -1.2988352578       -1.6791111595
 H          2.9926216600        0.8094172945        1.2691325075
 H          1.0108286755        0.8837275647        2.7445182412
 H         -0.9596678596       -0.5133425288        2.2417872570
 C         -1.3380224633       -2.2175168577        0.2346259421
 H         -1.4853312161       -2.8798590209        1.1001483564
 C         -1.2614069581       -3.0655370113       -1.0175357773
 C         -0.5578292860       -4.3883396718       -0.9890684290
 C         -2.0528208815       -4.3357675591       -1.0796023684
 H         -2.5236180954       -4.6051688357       -2.0131248941
 H         -2.6304792717       -4.6030942351       -0.2066462456
 H         -0.1167503574       -4.6999793727       -0.0541050935
 H         -0.0036356414       -4.6993275851       -1.8621804474
 H         -1.2019529007       -2.4709745326       -1.9220021635
 O         -1.7180689051       -0.0411312068       -1.6090831582
