  62
        -98.94614242
 C         -1.9230040789       -1.2684484011        0.3186425796
 C         -1.6918930999        0.0993002291        0.0411741997
 C         -2.8188077806        1.0052972882        0.3053767398
 C         -3.9669596902        0.5034538873        0.7959524399
 C         -5.2106295307        1.3025532364        1.0543590401
 C         -6.1285725009        1.3126319657       -0.1761328099
 C         -5.4120212412        1.6705072663       -1.4782726799
 H         -4.6969244207        0.8809501169       -1.7208694400
 H         -6.1629008013        1.6771182458       -2.2713927298
 C         -4.6842713123        3.0218845969       -1.4515734099
 H         -5.0629335126        3.6301597466       -0.6294127798
 H         -4.9042787727        3.5564317368       -2.3780862598
 C         -3.1614902122        2.9198302480       -1.3473465500
 H         -2.7868077217        2.2371616184       -2.1144367701
 H         -2.7397294129        3.9068859184       -1.5550939700
 C         -2.6142032517        2.4647940884        0.0113739699
 H         -1.5308544318        2.6160818392       -0.0027347202
 H         -3.0395721221        3.0820356880        0.8051943100
 H         -6.5674314501        0.3185893954       -0.2892941499
 H         -6.9379955014        2.0227168451        0.0027082703
 H         -4.9338809415        2.3202860866        1.3223789101
 H         -5.7444438503        0.8478453059        1.8905240701
 O         -4.1425445191       -0.8143838428        1.0718047999
 C         -3.1329775585       -1.7325132421        0.8346181597
 O         -3.4255873976       -2.9093818223        1.1273270597
 O         -0.6016588403        0.5443746799       -0.4022584004
 C         -0.8289795881       -2.2864755103        0.0504019095
 C          0.4244273017       -1.9054462194        0.7992632594
 C          0.3434511616       -1.6953504495        2.1743832594
 C          1.4618136414       -1.3444180487        2.9044693593
 C          2.6857709712       -1.1854980977        2.2769020493
 C          2.7788260413       -1.3979500476        0.9078751592
 C          1.6557109015       -1.7682008384        0.1789511493
 H          1.7621197015       -1.9193990983       -0.8816589007
 N          4.0111857111       -1.2627825266        0.2383990491
 S          4.1410028902       -0.1480532965       -1.0063845208
 O          3.2176705103       -0.4775223971       -2.0595298108
 O          5.5441669001       -0.1574819254       -1.3609459209
 C          3.7346239991        1.4148686032       -0.2475215707
 C          4.7724705985        2.2303251540        0.1627812592
 C          4.4798471976        3.4152200537        0.8172971093
 C          3.1581811274        3.7583635427        1.0601279995
 C          2.1303751080        2.9262160919        0.6457585695
 C          2.4132417588        1.7402233722       -0.0153887406
 H          1.6207090893        1.0863462316       -0.3440544205
 H          1.0998731278        3.1840183311        0.8330237296
 H          2.9268331068        4.6782881825        1.5738269595
 H          5.2792153572        4.0638829943        1.1377279693
 H          5.7839091287        1.9233005647       -0.0497804209
 H          4.7984785011       -1.1486716661        0.8621275991
 H          3.5606972411       -0.9033684871        2.8429952192
 H          1.3807011314       -1.1854079488        3.9691204194
 H         -0.6157943883       -1.8102887802        2.6614046495
 H         -1.1940260674       -3.2409349406        0.4572335995
 C         -0.6201213781       -2.4435702500       -1.4413543805
 C         -0.1041301672       -3.7357582796       -1.9965607506
 C         -1.5347881875       -3.3449532607       -2.2122664805
 H         -1.8447833378       -3.0424045109       -3.2014087405
 H         -2.2989933871       -3.8684900313       -1.6558769005
 H          0.5722278027       -3.6997018691       -2.8375336107
 H          0.1034453435       -4.5323714995       -1.2980869407
 H         -0.3056433589       -1.5238504898       -1.9227014105
