  62
        -98.94029906
 C         -2.1688390269       -0.6635271034        0.2290052107
 C         -2.9858676744        0.0875385676        1.1116297712
 C         -3.8630753132        1.0895204692        0.4923342694
 C         -3.7985186824        1.2844692143       -0.8372458099
 C         -4.6770325613        2.2239455758       -1.6100617958
 C         -5.9463088025        1.5149589296       -2.1036614468
 C         -6.6749804955        0.7226000338       -1.0181293204
 H         -6.0443374675       -0.1110186235       -0.7004418689
 H         -7.5687879602        0.2920384630       -1.4745789860
 C         -7.0767393000        1.5499809437        0.2109551174
 H         -8.1048550235        1.2999853445        0.4810099482
 H         -7.0556663830        2.6123998156       -0.0344509053
 C         -6.2176580842        1.3003872896        1.4519693891
 H         -6.1620307415        0.2267704167        1.6499508543
 H         -6.7135489230        1.7646435260        2.3085744274
 C         -4.7886039851        1.8548765306        1.3956351107
 H         -4.3608594800        1.7752721727        2.3995820834
 H         -4.8141830582        2.9103737422        1.1166529699
 H         -5.6680505956        0.8241034424       -2.9028490332
 H         -6.6195539167        2.2652596939       -2.5220538144
 H         -4.9426059140        3.0687958660       -0.9774136096
 H         -4.1162811973        2.5886352134       -2.4722579764
 O         -2.9424078160        0.6058846547       -1.6408856411
 C         -2.1093213849       -0.3873020481       -1.1381106019
 O         -1.3838657244       -0.9171546850       -1.9982746563
 H          0.2422837281        0.4213070490        1.0137499830
 C          0.7795178650       -0.3857161063        0.5282517468
 C          0.1339287205       -1.6011692088        0.3306386422
 C          0.8340814222       -2.6264342151       -0.2898062861
 C          2.1403853689       -2.4318099579       -0.7046428980
 C          2.7744248545       -1.2189413170       -0.5126411837
 C          2.0834899457       -0.1849166908        0.1061456592
 N          2.7218885353        1.0577793530        0.2932483789
 S          4.1390255096        1.0510084807        1.1990888676
 O          4.1333364206       -0.0132134041        2.1768708644
 O          4.2658779192        2.3963076613        1.7165963434
 C          5.4197230331        0.7659949553       -0.0035122686
 C          5.5355391800        1.6530303226       -1.0558217994
 C          6.5324593767        1.4477026680       -1.9961597143
 C          7.3926858525        0.3671426564       -1.8673863130
 C          7.2650123656       -0.5122402889       -0.8030768496
 C          6.2693117467       -0.3132818247        0.1406844738
 H          6.1268567324       -0.9733222522        0.9812654213
 H          7.9345820878       -1.3515480976       -0.7049274799
 H          8.1673467238        0.2098113910       -2.6012030519
 H          6.6349074131        2.1291619848       -2.8253009004
 H          4.8483053161        2.4804306657       -1.1170574908
 H          2.1014296176        1.7779862394        0.6349802658
 H          3.7883170921       -1.0619359304       -0.8427251271
 H          2.6701192353       -3.2363884873       -1.1913658053
 H          0.3521514344       -3.5736256882       -0.4667172118
 C         -1.2813769164       -1.7352911117        0.8347194008
 H         -1.2707067441       -1.4991684428        1.9130459799
 C         -1.8374033253       -3.1463431864        0.7116369013
 C         -3.3107500321       -3.3873214164        0.5786902047
 C         -2.3972773771       -3.6800510953       -0.5715889810
 H         -2.2073779215       -4.7135123074       -0.8220669019
 H         -2.4100543322       -3.0190622363       -1.4236261668
 H         -3.9554155834       -2.5226541907        0.5128080843
 H         -3.7460445827       -4.2151453598        1.1181198387
 H         -1.2936838043       -3.8494813486        1.3352591034
 O         -2.9775861405       -0.0709396784        2.3625933858
