  62
        -98.94559054
 C          2.4116321179        0.8438355266        0.1764244051
 C          1.9544574690       -0.0362942231       -0.8342889142
 C          2.3723355547       -1.4390054159       -0.6948966134
 C          3.1388040789       -1.7992638157        0.3507979147
 C          3.5777096388       -3.2034584874        0.6479809210
 C          2.5703940081       -3.9163604191        1.5615941514
 C          1.1194527082       -3.7952456427        1.0945119083
 H          0.5032281429       -4.3580326890        1.7992069359
 H          0.8090461187       -2.7495717990        1.1609754487
 C          0.8678968520       -4.3069678372       -0.3305828133
 H          1.6908390014       -4.9513615956       -0.6416970016
 H         -0.0373243601       -4.9172890408       -0.3271559164
 C          0.6628114966       -3.2055330453       -1.3720735499
 H         -0.0983045360       -2.5040644510       -1.0210270410
 H          0.2845195954       -3.6692087813       -2.2863153199
 C          1.9135954502       -2.4038358535       -1.7517002220
 H          2.7208287137       -3.0849521650       -2.0281976055
 H          1.6623238589       -1.7931718838       -2.6235732746
 H          2.8471523907       -4.9702548165        1.6250288786
 H          2.6457489173       -3.4854909684        2.5629291039
 H          3.6874559309       -3.7503339576       -0.2863098819
 H          4.5453609124       -3.1631314183        1.1509162555
 O          3.5595426250       -0.9234373256        1.3000280943
 C          3.2027380606        0.4145595499        1.2408367953
 O          3.6387657060        1.1069058863        2.1838936015
 H          0.2180127841        0.9394631278        1.5031821056
 C         -0.2551408515        1.6820935898        0.8717052946
 C          0.5400659950        2.4875084742        0.0660586234
 C         -0.0803917568        3.4404639282       -0.7316163003
 C         -1.4577195507        3.5771288181       -0.7179439037
 C         -2.2450363315        2.7730057936        0.0848695256
 C         -1.6367289432        1.8101251178        0.8812654623
 N         -2.4113799265        0.9932826492        1.7217543834
 S         -3.8343817984        0.2847985061        1.2076413502
 O         -4.7976103742        1.3149545511        0.9105003791
 O         -4.1858711757       -0.6345162490        2.2655695476
 C         -3.4445264002       -0.6266663801       -0.2742855609
 C         -3.4473703589        0.0178816121       -1.4951020902
 C         -3.1209142345       -0.7032105882       -2.6325898085
 C         -2.8077225764       -2.0494342496       -2.5326775399
 C         -2.8155518577       -2.6839702537       -1.2998608666
 C         -3.1292895626       -1.9660436638       -0.1575307570
 H         -3.1513254204       -2.4218387904        0.8194611489
 H         -2.5762241037       -3.7325453720       -1.2251744348
 H         -2.5561600210       -2.6076777448       -3.4205192871
 H         -3.1115278709       -0.2111644857       -3.5917147279
 H         -3.7097280567        1.0614666785       -1.5404293487
 H         -1.8706612211        0.3385354091        2.2666234538
 H         -3.3172511494        2.8796284585        0.1138325386
 H         -1.9259641991        4.3250645727       -1.3397561721
 H          0.5145015716        4.0784886389       -1.3640104426
 C          2.0392078098        2.3131667002        0.1174896865
 H          2.3990410843        2.7577238676        1.0576745117
 C          2.7590372345        2.9775032858       -1.0392924568
 C          3.1842099523        4.4113760842       -0.9482898118
 C          4.2090552021        3.3202328729       -0.8828124421
 H          4.8680283622        3.1766682106       -1.7259418584
 H          4.6680487879        3.1026221631        0.0710113304
 H          2.9562898266        4.9452967069       -0.0380129855
 H          3.1435846618        5.0196165886       -1.8394201082
 H          2.4361387990        2.5969708278       -2.0015410723
 O          1.2333455698        0.3274127356       -1.7984562995
