  62
        -98.94414732
 C         -2.5012539124       -1.1632029128       -0.0687372878
 C         -3.2222869432       -0.4120668167        0.8892338986
 C         -4.0404049891        0.6842702716        0.3591514478
 C         -4.0729331691        0.9115537862       -0.9669962645
 C         -4.8810840336        1.9731747003       -1.6630109453
 C         -4.2056361277        3.3509350734       -1.6988083662
 C         -4.1697337483        4.0924040671       -0.3618708699
 H         -3.8673413549        5.1200986695       -0.5724072275
 H         -5.1745381082        4.1286308278        0.0599503613
 C         -3.1997299584        3.4944145190        0.6669116830
 H         -2.4956486554        2.8302672232        0.1593161101
 H         -2.6114634186        4.2942438581        1.1229125857
 C         -3.8754407909        2.7250446359        1.8023509837
 H         -3.0962767378        2.3173683765        2.4523517013
 H         -4.4832877480        3.4099121433        2.3976389601
 C         -4.7619002468        1.5620039425        1.3370574896
 H         -5.0132830542        0.9529491783        2.2088810982
 H         -5.6836960169        1.9440024520        0.8991627349
 H         -3.1876057724        3.2312207003       -2.0767161286
 H         -4.7560311576        3.9649932453       -2.4151211980
 H         -5.0203937188        1.6320249849       -2.6909825688
 H         -5.8592657276        2.0583563897       -1.1890683752
 O         -3.3648410628        0.1657034692       -1.8557927890
 C         -2.5447577484       -0.8711905136       -1.4323226805
 O         -1.9258138973       -1.4422431785       -2.3488065894
 O         -3.1813471655       -0.6446045240        2.1284791540
 C         -1.6218550875       -2.3059389463        0.4027592313
 C         -0.1769823967       -2.0416768727        0.0544264055
 C          0.6694736745       -3.0077417046       -0.4730155219
 C          1.9914733575       -2.7053964196       -0.7518371038
 C          2.4983817165       -1.4422653390       -0.5106616739
 C          1.6646155497       -0.4709961352        0.0287089414
 C          0.3432329712       -0.7786610983        0.3114882645
 H         -0.3034690558       -0.0203088921        0.7375276436
 N          2.1707544235        0.8199051988        0.2716421387
 S          3.5446983917        0.9445249338        1.2330253689
 O          3.6261818952       -0.1448403761        2.1785906688
 O          3.4954248310        2.2782179079        1.7914761062
 C          4.8929626979        0.8500516514        0.0747756726
 C          5.8664191198       -0.1174336257        0.2294615395
 C          6.9132659199       -0.1651210062       -0.6780887259
 C          6.9676787850        0.7506678226       -1.7176985420
 C          5.9830507102        1.7176646575       -1.8574306198
 C          4.9346874944        1.7718601972       -0.9529116650
 H          4.1519944432        2.5088000737       -1.0234663693
 H          6.0286431490        2.4281263087       -2.6671003035
 H          7.7822143011        0.7109771309       -2.4235471891
 H          7.6799313620       -0.9155662821       -0.5710191089
 H          5.7787750684       -0.8116062021        1.0499456216
 H          1.4685349645        1.4733338716        0.5878062684
 H          3.5246599861       -1.2012604097       -0.7345085143
 H          2.6354420903       -3.4652150321       -1.1674614442
 H          0.2934384822       -3.9981184359       -0.6696407937
 H         -1.7077498497       -2.3057919766        1.5004775983
 C         -2.1424874214       -3.6267269872       -0.1240873827
 C         -1.9390442336       -4.8876996314        0.6599144050
 C         -3.3024530912       -4.2729455955        0.5702943692
 H         -4.0542293916       -4.7640194954       -0.0290494766
 H         -3.6983531732       -3.7732390034        1.4425967005
 H         -1.7569014184       -5.8057403817        0.1219218767
 H         -1.4110461525       -4.8133941142        1.5987087745
 H         -2.1126091292       -3.6826737443       -1.2063526426
