  62
        -98.94351096
 C         -1.7152752033       -1.3773008243        0.6371825710
 C         -2.5996580471       -1.0329146622       -0.4144112150
 C         -3.4199358332        0.1687076352       -0.1916672349
 C         -3.2630293545        0.8824286862        0.9372733319
 C         -3.9997572912        2.1487728413        1.2630623943
 C         -3.2334484427        3.3856257260        0.7744927668
 C         -2.7652404065        3.2875589250       -0.6774080555
 H         -2.2663915683        4.2273722311       -0.9239207066
 H         -2.0215191744        2.4917092904       -0.7575458300
 C         -3.8886590485        3.0316228837       -1.6916215434
 H         -3.7481336848        3.6969815234       -2.5461325912
 H         -4.8541622723        3.2765707957       -1.2474052281
 C         -3.9317592285        1.6045877359       -2.2406664553
 H         -4.6093463689        1.5906239719       -3.0985926891
 H         -2.9408298919        1.3189770133       -2.6022619157
 C         -4.4142344343        0.5285542105       -1.2600506800
 H         -5.3628848094        0.8352848935       -0.8146438949
 H         -4.5842535614       -0.3881048440       -1.8322092151
 H         -2.3565907037        3.5184857056        1.4120834608
 H         -3.8770996382        4.2590830042        0.8942382801
 H         -4.9863712933        2.1150048174        0.8048155926
 H         -4.1157604093        2.2088065713        2.3465649072
 O         -2.3696340874        0.5473206888        1.9031124179
 C         -1.5784051231       -0.5790474297        1.7766297816
 O         -0.7998723584       -0.7674107068        2.7340527196
 H          1.5392899438       -1.7090488352        1.4869540061
 C          1.5439722958       -1.7774744514        0.4069593036
 C          0.4074741000       -2.2385635723       -0.2445314311
 C          0.4095531548       -2.2900545888       -1.6335890002
 C          1.5302661782       -1.8982177942       -2.3446340736
 C          2.6663417667       -1.4514331382       -1.6923686568
 C          2.6683145011       -1.3841913425       -0.3050533316
 N          3.8177166372       -0.9334468332        0.3756034213
 S          4.4278039335        0.5762071456       -0.0075693853
 O          4.9365881531        0.5527103037       -1.3549899034
 O          5.3835124518        0.8751318237        1.0335453189
 C          3.0363995468        1.6853718590        0.1018207646
 C          2.7480828492        2.2609106293        1.3231022557
 C          1.6459074898        3.0930709663        1.4292535569
 C          0.8495488941        3.3253808209        0.3187377476
 C          1.1465048928        2.7321186079       -0.8984515715
 C          2.2505219179        1.9025884380       -1.0120668596
 H          2.5183853907        1.4315874253       -1.9435208808
 H          0.5219903771        2.9137408862       -1.7587068783
 H         -0.0077741434        3.9745329923        0.4014808783
 H          1.4097923644        3.5537215243        2.3751620893
 H          3.3977305537        2.0613833144        2.1603149595
 H          3.7402848357       -1.0183317839        1.3793957527
 H          3.5451048171       -1.1426643955       -2.2351815198
 H          1.5207886349       -1.9434855596       -3.4232437468
 H         -0.4793520054       -2.6123275071       -2.1516071811
 C         -0.8059747353       -2.5968322397        0.5785718276
 H         -0.4685603099       -2.7638916945        1.6103696059
 C         -1.5026347626       -3.8518650192        0.0970226059
 C         -0.8406169773       -5.1757990026        0.3283583056
 C         -2.0679710387       -4.8054277937        1.1043248598
 H         -2.9960296784       -5.3068878521        0.8741708933
 H         -1.9550802126       -4.5573328668        2.1499616064
 H         -0.9232576977       -5.9339437203       -0.4350584027
 H          0.1063033755       -5.1768803337        0.8474005881
 H         -2.0588365149       -3.7193476617       -0.8206404158
 O         -2.7213445572       -1.6821886670       -1.4851750790
