  62
        -98.94109237
 C         -1.1021841391       -1.2439772820       -0.2155578285
 C         -2.0035246833       -0.9226229179        0.8315716026
 C         -2.8934705591        0.2325369793        0.6259887317
 C         -2.8164248765        0.9221210419       -0.5271115282
 C         -3.5807391452        2.1323850583       -1.0230979132
 C         -4.8220249078        2.6275323423       -0.2855701596
 C         -6.0323697806        1.6986518299       -0.3805652761
 H         -6.8176314157        2.0906343108        0.2694572277
 H         -6.4083662204        1.7234616823       -1.4066158775
 C         -5.7734152278        0.2374188349       -0.0221195438
 H         -6.7100699080       -0.3105930058       -0.1564993945
 H         -5.0494781363       -0.1892629587       -0.7193102274
 C         -5.2919911117       -0.0093607678        1.4060364615
 H         -5.2928805991       -1.0900881271        1.5718782268
 H         -5.9943320002        0.4367675908        2.1129655530
 C         -3.8789539883        0.5072639217        1.7253661708
 H         -3.8948972715        1.5654283488        1.9748286252
 H         -3.5146626050       -0.0320115405        2.6044383603
 H         -4.5851308737        2.8415528924        0.7524498772
 H         -5.1012144625        3.5782816744       -0.7478443034
 H         -2.8544846138        2.9510412713       -1.0632537430
 H         -3.8482460420        1.9106942419       -2.0612846826
 O         -1.9072942081        0.5999792141       -1.4902791070
 C         -1.0366295402       -0.4686709603       -1.3714486013
 O         -0.2828089089       -0.5986635274       -2.3577827034
 H          1.6144652014       -1.0498655077       -1.3878383319
 C          1.9802594030       -1.3386380189       -0.4137139397
 C          1.1627574774       -2.0792974335        0.4281558307
 C          1.6429597497       -2.4195296085        1.6872161044
 C          2.9084927118       -2.0289549901        2.0911093460
 C          3.7162446088       -1.2811395110        1.2524612750
 C          3.2396285144       -0.9312371062       -0.0034032775
 N          4.0297199444       -0.1073383485       -0.8430018362
 S          4.1377073536        1.4725628910       -0.2904991357
 O          4.6083381571        2.2568626006       -1.4090701330
 O          4.9619130033        1.4891466536        0.8910187949
 C          2.4643523830        1.9277088707        0.1317765997
 C          1.9934683016        1.6612802162        1.4020252636
 C          0.6729215321        1.9534257634        1.7005502377
 C         -0.1475675148        2.5107087553        0.7324265468
 C          0.3400883842        2.7712528197       -0.5385426403
 C          1.6560506602        2.4685978485       -0.8469735177
 H          2.0696773245        2.6543647749       -1.8254535193
 H         -0.3006250652        3.1955635000       -1.2952234245
 H         -1.1746412631        2.7373285426        0.9723835736
 H          0.2842993213        1.7415034339        2.6837082744
 H          2.6639058490        1.2380509827        2.1318937553
 H          3.6829637789       -0.0903865068       -1.7931816122
 H          4.6925442773       -0.9412371304        1.5578369329
 H          3.2671078254       -2.3028543883        3.0715908068
 H          1.0091785635       -2.9800524756        2.3586503413
 C         -0.2275350769       -2.4702557946       -0.0088166788
 H         -0.6956874460       -3.0186715421        0.8193381828
 C         -0.1816186559       -3.3802754253       -1.2210115850
 C          0.1974117054       -4.8179330408       -1.0368353151
 C         -1.2167111106       -4.4523450067       -1.3729090041
 H         -1.5883073045       -4.6728809427       -2.3623894199
 H         -1.9640163183       -4.5395667025       -0.5976586607
 H          0.8006419181       -5.2925328523       -1.7954064357
 H          0.4082871664       -5.1550527490       -0.0333091664
 H          0.1518838627       -2.8830802486       -2.1225499520
 O         -2.0684452592       -1.5840311661        1.9012339814
