  62
        -98.94637364
 C         -1.7863134299       -0.7356846198        0.2531868203
 C         -3.0839323199       -0.9663611902        0.7693275803
 C         -3.9971940600        0.1812441097        0.7342976509
 C         -3.5655947502        1.3636318199        0.2584384015
 C         -4.3709545504        2.6320614799        0.1792746822
 C         -5.2546426005        2.7310636904       -1.0717087077
 C         -6.4823555004        1.8194111202       -1.0743818881
 H         -7.0429443803        1.9636636397       -0.1502522679
 H         -7.1215948705        2.1456483605       -1.8972160878
 C         -6.1646093102        0.3288158903       -1.2584771788
 H         -6.8444608502       -0.0997803094       -1.9983543289
 H         -5.1521176002        0.2175177207       -1.6536652189
 C         -6.2938552300       -0.5091929803        0.0136480608
 H         -6.0111155699       -1.5379420601       -0.2241279897
 H         -7.3345996100       -0.5145186306        0.3450736509
 C         -5.4133647199       -0.0325528707        1.1762700310
 H         -5.8213432300        0.8815643090        1.6069157114
 H         -5.4085997298       -0.8104069011        1.9438138906
 H         -5.5970902106        3.7656337104       -1.1480651572
 H         -4.6412840606        2.5185103609       -1.9504457279
 H         -4.9894130303        2.7308624094        1.0717202923
 H         -3.6536105005        3.4551952300        0.1594924825
 O         -2.3003044903        1.5513591403       -0.2024940886
 C         -1.3880601101        0.5066020905       -0.2382607291
 O         -0.2780707402        0.8124039308       -0.7125256891
 H          1.8611074602       -1.9542167989       -0.5883404906
 C          1.7247317302       -1.6059683094        0.4212297396
 C          0.4588788402       -1.5051407399        0.9754270697
 C          0.3396476503       -1.0460344305        2.2858180500
 C          1.4556313503       -0.6855054407        3.0144361200
 C          2.7170202003       -0.7665090603        2.4489871999
 C          2.8481040202       -1.2284351796        1.1462103196
 N          4.1174136402       -1.3430586292        0.5459588195
 S          4.4288262699       -0.5062262085       -0.8718784002
 O          3.5236449699       -0.9351461881       -1.9049440703
 O          5.8367513599       -0.7259360582       -1.1242175004
 C          4.1658428998        1.2063597413       -0.4465608593
 C          2.8796157297        1.7018118711       -0.3717098089
 C          2.6983862696        3.0164198109        0.0317151217
 C          3.7917338795        3.8058838809        0.3512958020
 C          5.0771170295        3.2909813411        0.2699395816
 C          5.2672925997        1.9779296813       -0.1270802490
 H          6.2471826197        1.5355394214       -0.2079322993
 H          5.9272505195        3.9065846011        0.5163833518
 H          3.6402319194        4.8272594307        0.6636841125
 H          1.6940078395        3.4051292907        0.0913336920
 H          2.0346018298        1.0808450211       -0.6250033992
 H          4.8829028502       -1.1938576694        1.1892210595
 H          3.5912422203       -0.4780130805        3.0128615699
 H          1.3446641304       -0.3313141312        4.0281373902
 H         -0.6469730397       -0.9743597809        2.7234038501
 C         -0.7923127498       -1.8820668397        0.2230546296
 H         -1.2820344496       -2.7075293500        0.7612674493
 C         -0.5370413799       -2.3194583590       -1.2039184806
 C         -0.1427650197       -3.7346660888       -1.4989159613
 C         -1.5112695398       -3.2459151388       -1.8649303809
 H         -1.7441841199       -3.0917336883       -2.9079985708
 H         -2.3506726997       -3.5846406192       -1.2750791110
 H          0.5694142303       -3.9142567283       -2.2904469515
 H         -0.0532050395       -4.4128183792       -0.6637173716
 H         -0.1036128300       -1.5342350486       -1.8145904202
 O         -3.4563669197       -2.0731518005        1.2427475498
