  62
        -98.94491927
 C         -1.9596254413       -0.8545246010        0.0699142469
 C         -2.2676723814        0.1054198491        1.0610284484
 C         -2.3658698931        1.4960423808        0.6014674741
 C         -2.1274485990        1.7778577004       -0.6926824144
 C         -2.2215055061        3.1466456621       -1.3018691734
 C         -3.6296789379        3.4208376303       -1.8484261685
 C         -4.7489988104        3.0979150186       -0.8586840196
 H         -5.6940343092        3.3567537818       -1.3407998256
 H         -4.7630228018        2.0207702686       -0.6778626299
 C         -4.6407708109        3.8346100636        0.4835668840
 H         -3.9708172991        4.6892594453        0.3841010791
 H         -5.6258426017        4.2225482169        0.7507935576
 C         -4.1756156198        2.9611906700        1.6501976994
 H         -4.3409481609        3.5154999463        2.5778049051
 H         -4.7857119698        2.0557122460        1.6961588265
 C         -2.6993212159        2.5442524169        1.6258217301
 H         -2.4612540368        2.0979294268        2.5961214824
 H         -2.0669077209        3.4249960955        1.4932860723
 H         -3.6881350294        4.4716236881       -2.1377500916
 H         -3.7767288475        2.8119156323       -2.7432700727
 H         -1.5014033204        3.2038084698       -2.1201095130
 H         -1.9589431721        3.8890045172       -0.5503480453
 O         -1.8194173087        0.8308546229       -1.6148988566
 C         -1.7152633173       -0.5037501223       -1.2580834001
 O         -1.4209380328       -1.2673042668       -2.1982288632
 O         -2.4491837552       -0.1885519833        2.2753183009
 C         -1.7881322082       -2.3067633840        0.4759401088
 C         -0.3849674359       -2.7571165632        0.1489525441
 C         -0.0871374220       -3.9904153691       -0.4159000115
 C          1.2215482812       -4.3201715125       -0.7246643314
 C          2.2524619285       -3.4294627976       -0.4913471229
 C          1.9665353675       -2.2004425930        0.0936618920
 C          0.6607753390       -1.8860216413        0.4277434835
 H          0.4523088036       -0.9269383942        0.8809778084
 N          2.9889518987       -1.2745859814        0.3701115973
 S          2.6257113014        0.3703116090        0.2384899785
 O          2.0114708018        0.8087883048        1.4678908366
 O          1.8919183650        0.6349166171       -0.9786964144
 C          4.2747352401        1.0417884265        0.1281300927
 C          4.7925417369        1.3752149762       -1.1089477043
 C          6.0883101291        1.8621877645       -1.1842852312
 C          6.8409819874        2.0028811701       -0.0281181981
 C          6.3072953471        1.6645838378        1.2067617952
 C          5.0121409166        1.1786208155        1.2892673136
 H          4.5502769275        0.9110366316        2.2252275644
 H          6.8943531346        1.7777813268        2.1037494129
 H          7.8490317888        2.3812435974       -0.0898044728
 H          6.5040601169        2.1288388453       -2.1425570586
 H          4.1663316596        1.2545705592       -1.9786291757
 H          3.8540265021       -1.4975511510       -0.1040301297
 H          3.2683834444       -3.6785037500       -0.7576291438
 H          1.4386428031       -5.2786146484       -1.1713260077
 H         -0.8809429548       -4.6877410497       -0.6281563100
 H         -1.9105314917       -2.3225748533        1.5699310636
 C         -2.8626473696       -3.1713930107       -0.1496714134
 C         -3.3474326154       -4.4045186607        0.5510982206
 C         -4.2256846124       -3.1932909070        0.4725287669
 H         -5.0882059922       -3.2191468449       -0.1762904229
 H         -4.3691046448       -2.6040486226        1.3666408755
 H         -3.6113628153       -5.2653772977       -0.0444316243
 H         -2.9020958006       -4.6446552964        1.5046669057
 H         -2.8051980907       -3.1820477212       -1.2324672105
