  62
        -98.93986908
 C          1.4703335012        1.6755905896       -0.2407556507
 C          2.6774499013        1.4353803995        0.4637370990
 C          3.4995958308        0.3141828991       -0.0128607208
 C          3.0741165903       -0.4068289812       -1.0659009803
 C          3.7324926598       -1.6492522617       -1.5944015700
 C          3.3993957096       -2.8432285612       -0.6762109994
 C          4.6075816597       -3.4352019912        0.0495735805
 H          4.2288619797       -4.1146955808        0.8159155309
 H          5.1921854893       -4.0283497717       -0.6567531594
 C          5.5526130302       -2.4235777913        0.7053368598
 H          6.2102618101       -1.9910872718       -0.0503065506
 H          6.1932541202       -2.9843377312        1.3893696898
 C          4.8821135108       -1.2835831307        1.4830966595
 H          5.4747108711       -1.0911386605        2.3798107392
 H          3.8871758708       -1.5777670203        1.8178664599
 C          4.7880065710        0.0488016090        0.7154393390
 H          4.8790722014        0.8702173493        1.4321668186
 H          5.6258009308        0.1279723884        0.0171812387
 H          2.9324756992       -3.6350809713       -1.2640260789
 H          2.6612866800       -2.5132058606        0.0578096407
 H          4.8080650598       -1.4996330220       -1.6547185904
 H          3.3487783994       -1.8218977220       -2.6002505098
 O          1.9229667102       -0.1319262712       -1.7300573901
 C          1.0890337906        0.9061727593       -1.3392402703
 O          0.0713579505        1.0249824393       -2.0478881401
 O          3.0459888218        2.1261395098        1.4503935186
 C          0.5452990517        2.7647513401        0.2804565091
 C         -0.6627899084        2.0590414808        0.8436088697
 C         -0.6063030481        1.5184601913        2.1256484199
 C         -1.6490908082        0.7562123718        2.6183198206
 C         -2.7582157986        0.4918632718        1.8328606010
 C         -2.8170152488        1.0193781313        0.5501473008
 C         -1.7896192987        1.8212444008        0.0724280802
 H         -1.8501963488        2.2168809304       -0.9285330800
 N         -3.9082251991        0.7033271513       -0.2800293587
 S         -4.3466136196       -0.9111110786       -0.3445673979
 O         -4.8876281101       -1.1118256090       -1.6712366977
 O         -5.2512147194       -1.1998938578        0.7422881125
 C         -2.8492082599       -1.8637398990       -0.1303439980
 C         -2.8336017799       -2.8755582386        0.8091744925
 C         -1.6829723501       -3.6305609489        0.9676410024
 C         -0.5686667603       -3.3607236295        0.1883117820
 C         -0.6002100202       -2.3423413699       -0.7512712984
 C         -1.7493455000       -1.5856947596       -0.9173429884
 H         -1.7720489600       -0.7824156299       -1.6372669287
 H          0.2651149797       -2.1178241105       -1.3552934588
 H          0.3294928496       -3.9457159198        0.3116506020
 H         -1.6572708102       -4.4232409386        1.6979535428
 H         -3.7200446798       -3.0460757880        1.3984580428
 H         -3.8203538093        1.0823646409       -1.2122556789
 H         -3.5714892086       -0.1198760277        2.1889857415
 H         -1.5939383981        0.3501966722        3.6167825507
 H          0.2770560421        1.6892177713        2.7247729896
 H          1.0883045421        3.2420011003        1.1063963187
 C          0.2227830317        3.8118965798       -0.7634064413
 C         -0.4283207777        5.0923436302       -0.3355693916
 C          1.0014035721        5.0915986595       -0.7837330821
 H          1.2431134220        5.5313442991       -1.7398143623
 H          1.7715361824        5.2207478996       -0.0375707423
 H         -1.1704445678        5.5360800601       -0.9815676416
 H         -0.6302012574        5.2193716907        0.7172550584
 H         -0.0611977387        3.3951524695       -1.7218769210
