  62
        -98.92813589
 C         -2.4225834703       -0.1520521918       -0.6143508499
 C         -3.4203677203        0.7171237493       -0.1143943417
 C         -4.6571347102        0.0844738603        0.3983164097
 C         -4.7566207602       -1.2567183197        0.3972373227
 C         -5.9204502401       -2.1070134988        0.8318875446
 C         -7.0630008802       -2.1164913611       -0.1972956353
 C         -7.4004464303       -0.7540887124       -0.7977193583
 H         -6.5063187303       -0.3371647834       -1.2648566493
 H         -8.1358651903       -0.9136024842       -1.5907896279
 C         -7.9827451503        0.2627729097        0.1809890595
 H         -8.9043860702       -0.1387858894        0.6082969704
 H         -8.2448059703        1.1543365384       -0.3945720125
 C         -7.0635297202        0.6903142123        1.3266926585
 H         -7.5141859703        1.5712555733        1.7934416166
 H         -7.0157300002       -0.0751393760        2.0964661902
 C         -5.6571981703        1.0990347714        0.8993316875
 H         -5.7290215303        1.8624779197        0.1162741758
 H         -5.1696868203        1.6005667933        1.7443329364
 H         -6.7716018102       -2.7771775229       -1.0174560439
 H         -7.9509633801       -2.5383889801        0.2763463456
 H         -6.2764642501       -1.7826461766        1.8051811539
 H         -5.5410152401       -3.1255630285        0.9393567868
 O         -3.7568222102       -2.0572360707       -0.0729148556
 C         -2.5865802202       -1.5389277017       -0.5848641268
 O         -1.7751056502       -2.3982611026       -0.9867250849
 O         -3.3171375404        1.9703352093       -0.0884508245
 C         -1.1066402203        0.3314928570       -1.2004444310
 C         -0.0621921703        0.5027999894       -0.1266766414
 C         -0.3270405303        1.2266701119        1.0312753770
 C          0.6489175798        1.3810592941        1.9991361066
 C          1.9029426298        0.8197667838        1.8353028278
 C          2.1788276898        0.0963637113        0.6828529594
 C          1.1976152597       -0.0544791109       -0.2898593003
 H          1.4109602397       -0.6302939328       -1.1805776090
 N          3.4464182298       -0.4892142490        0.5168407306
 S          4.7864451198        0.4580630120        0.9261698785
 O          4.9982364298        0.3574378451        2.3482560787
 O          4.6193658397        1.7960525308        0.4051351455
 C          6.0892010398       -0.3916081299        0.0575156903
 C          6.6674737498       -1.5019900486        0.6427717927
 C          7.6651031798       -2.1762343500       -0.0431683559
 C          8.0647092898       -1.7323054428       -1.2950774469
 C          7.4754479297       -0.6157194241       -1.8688714093
 C          6.4763414797        0.0628453174       -1.1889662007
 H          5.9978169096        0.9411027065       -1.5920119827
 H          7.7903120096       -0.2713137062       -2.8407751901
 H          8.8426705498       -2.2579447639       -1.8259010957
 H          8.1276922999       -3.0432348490        0.4001195760
 H          6.3314151599       -1.8047885164        1.6206868434
 H          3.5578663698       -0.9085760410       -0.3962517485
 H          2.6725300298        0.9381691155        2.5811086175
 H          0.4318525798        1.9471854861        2.8928620654
 H         -1.3006827103        1.6745089822        1.1595694561
 H         -0.7710569603       -0.4881935244       -1.8557376792
 C         -1.2607275304        1.5685162950       -2.0757360537
 C         -0.7639712505        2.9269344059       -1.6944630667
 C         -0.0631552705        2.1514890736       -2.7665403051
 H         -0.1615512006        2.4735511213       -3.7920879358
 H          0.9030785895        1.7347097842       -2.5235257342
 H         -1.3696334805        3.7756815453       -1.9726986486
 H         -0.2679642804        3.0430245980       -0.7436684770
 H         -2.1828792405        1.5414488237       -2.6473987836
