  62
        -98.93878837
 C         -2.7900471996       -0.2548089287       -0.3814156449
 C         -2.9551612774        0.6727134084        0.6800740153
 C         -2.6419377937        2.0720452449        0.3806631193
 C         -2.2319708769        2.4100177703       -0.8548253089
 C         -1.8383665784        3.7870594725       -1.3137125425
 C         -0.3846699820        4.1448869581       -0.9730279590
 C         -0.1247266712        4.4689922488        0.4989066708
 H          0.8585236548        4.9403030448        0.5538428299
 H         -0.8578634953        5.1973162408        0.8482737489
 C         -0.1299290205        3.2437268529        1.4240134325
 H          0.0080104806        2.3351723962        0.8311082850
 H          0.7244528959        3.2948533129        2.1039528778
 C         -1.3832385896        3.1005965483        2.2884258139
 H         -1.2974231943        2.1686649222        2.8537195903
 H         -1.4294899682        3.9263032925        3.0027127581
 C         -2.7009271329        3.0622848824        1.5038756604
 H         -2.9412722985        4.0547338564        1.1232168307
 H         -3.4939357939        2.7443617703        2.1854989240
 H          0.2598403676        3.3147915819       -1.2742612725
 H         -0.1130562627        5.0179931062       -1.5711694460
 H         -2.5110342182        4.5289348591       -0.8824085985
 H         -1.9529227056        3.7995384364       -2.3996925241
 O         -2.1336782576        1.5038949109       -1.8600839050
 C         -2.3535874765        0.1483864506       -1.6435702699
 O         -2.1394378898       -0.5540990283       -2.6506751830
 O         -3.3462991187        0.3367931067        1.8303922420
 C         -2.9688545999       -1.7203758481       -0.0182817122
 C         -1.6638439047       -2.1981637804        0.5690735857
 C         -1.5930632718       -2.8156486489        1.8110889978
 C         -0.3673600151       -3.1290006078        2.3754347774
 C          0.8111534172       -2.8187011304        1.7199778830
 C          0.7468279921       -2.2201863023        0.4706580768
 C         -0.4784251204       -1.9288063165       -0.1019660153
 H         -0.5105053879       -1.4444222416       -1.0683855456
 N          1.9536750829       -1.8183836232       -0.1759293720
 S          2.2967217938       -0.2036846945        0.2252478452
 O          2.1235324831       -0.0529760467        1.6474077831
 O          1.5376647718        0.6933118131       -0.6213916680
 C          4.0287562721       -0.1166174949       -0.1865504916
 C          4.9278396274       -0.7353183021        0.6606036249
 C          6.2743363799       -0.7199861957        0.3353533524
 C          6.6967423245       -0.0918424764       -0.8271711224
 C          5.7824010490        0.5248175876       -1.6672352584
 C          4.4332878748        0.5115542597       -1.3476429402
 H          3.6873788671        0.9811094224       -1.9690643912
 H          6.1127776915        1.0138639172       -2.5695513958
 H          7.7452797284       -0.0815845919       -1.0795899371
 H          6.9885907390       -1.1976636718        0.9863725377
 H          4.5521356957       -1.2041497107        1.5547323268
 H          1.8455076454       -1.8435993028       -1.1831233253
 H          1.7720947757       -3.0144819653        2.1660846025
 H         -0.3308110778       -3.5971092245        3.3472659722
 H         -2.5061378676       -3.0181156578        2.3516363396
 H         -3.7183755643       -1.7293323717        0.7888945360
 C         -3.4927500393       -2.5943256186       -1.1453598245
 C         -2.6617996101       -3.6330065248       -1.8316094702
 C         -3.7523150254       -4.0506067968       -0.8942725421
 H         -4.6468154071       -4.4946821377       -1.3031988931
 H         -3.4580710871       -4.4471874666        0.0657677802
 H         -2.8045780467       -3.7637297842       -2.8932544549
 H         -1.6389980030       -3.7613376533       -1.5129634342
 H         -4.2105998552       -2.0691026063       -1.7659894777
