  62
        -98.94331343
 C          2.3409808657        0.5706279468        0.1260761878
 C          3.3499100658        0.2725838020        1.0761433224
 C          4.2822900018       -0.8020831066        0.7135894122
 C          4.1124826063       -1.4528197179       -0.4518688494
 C          5.0122666748       -2.5375773132       -0.9674053006
 C          6.1357767483       -1.9600322801       -1.8396032566
 C          6.8740650119       -0.7854919025       -1.1975029362
 H          7.6638822359       -0.4812340828       -1.8877543974
 H          6.1871835427        0.0587463188       -1.1034117437
 C          7.4863675103       -1.0949769125        0.1757186018
 H          7.5619311480       -2.1741992689        0.3130966098
 H          8.5012170049       -0.6928026233        0.2052225144
 C          6.7312530907       -0.4855300305        1.3584108859
 H          6.5707044845        0.5807594969        1.1801550672
 H          7.3610199438       -0.5771274935        2.2473412735
 C          5.3782800918       -1.1283506763        1.6888783588
 H          5.4985027288       -2.2092445686        1.7858797778
 H          5.0484951192       -0.7313521613        2.6533592114
 H          6.8445604311       -2.7594022666       -2.0632616850
 H          5.7013285689       -1.6174555235       -2.7816198417
 H          5.4351471705       -3.0822603543       -0.1255251689
 H          4.4134257342       -3.2234284584       -1.5689503825
 O          3.1155090942       -1.1600175047       -1.3240685706
 C          2.2097594345       -0.1406548465       -1.0666867981
 O          1.3632411620        0.0222137936       -1.9659499175
 H         -0.8098641730        1.4822559584       -1.2358850731
 C         -0.9908409726        1.0325917036       -0.2722881024
 C         -0.0008185212        1.0562748414        0.6971417051
 C         -0.2564955908        0.4513230072        1.9250410033
 C         -1.4699508041       -0.1619930071        2.1712831257
 C         -2.4516572046       -0.1944117976        1.1957754552
 C         -2.2057828622        0.4025078795       -0.0327474531
 N         -3.1868839912        0.3495162240       -1.0365181655
 S         -4.7563512830        0.7996910060       -0.6599313684
 O         -5.3495457076        1.2002908014       -1.9171826704
 O         -4.7858243528        1.7772666209        0.4035466674
 C         -5.5204999687       -0.7141680503       -0.1166464944
 C         -5.4830393906       -1.8035073813       -0.9648188595
 C         -6.0811253480       -2.9865230919       -0.5612833829
 C         -6.7054830784       -3.0591921847        0.6751842321
 C         -6.7376957428       -1.9555983177        1.5137246809
 C         -6.1404351948       -0.7693908816        1.1162618274
 H         -6.1358697566        0.1124313826        1.7370279000
 H         -7.2238993399       -2.0141013197        2.4742767931
 H         -7.1696617809       -3.9816258628        0.9866487639
 H         -6.0576340023       -3.8469507443       -1.2106076590
 H         -4.9898697588       -1.7056544171       -1.9176925117
 H         -2.8904889208        0.7445735363       -1.9168435910
 H         -3.3984935672       -0.6761086270        1.3776617468
 H         -1.6540033953       -0.6234143668        3.1295978683
 H          0.5155252972        0.4643011418        2.6818860739
 C          1.3527485538        1.6773114120        0.4562800464
 H          1.7027933124        2.1030677519        1.4066104532
 C          1.3504571482        2.7692889011       -0.5926055923
 C          0.7100300785        4.0871410802       -0.2774829439
 C          2.2011083291        3.9849804661       -0.3861115034
 H          2.6873970030        4.4250189221       -1.2438888283
 H          2.7843445614        4.0386815437        0.5214238786
 H          0.2783202688        4.2078918987        0.7047009584
 H          0.1701263412        4.6000498066       -1.0590278519
 H          1.2659859472        2.3933249305       -1.6051525509
 O          3.4642995601        0.8783238622        2.1750522901
