  62
        -98.94310827
 C         -2.0575452431       -1.3765017499        0.3362915937
 C         -2.0610355628       -0.2330523857        1.1781570779
 C         -3.0560276912        0.7984569476        0.8724383120
 C         -3.9079909132        0.6156256963       -0.1525376293
 C         -5.0093053670        1.5526347324       -0.5686251846
 C         -4.5477303035        2.6931551014       -1.4859197807
 C         -3.7186243818        3.7808333780       -0.8021483889
 H         -3.6504017116        4.6172330448       -1.5006603780
 H         -4.2485705242        4.1379583030        0.0814036755
 C         -2.2989553985        3.3435217593       -0.4142277623
 H         -2.0364438834        2.4333715665       -0.9583364767
 H         -1.5889280540        4.1153430529       -0.7180693995
 C         -2.0943836172        3.0996090649        1.0810949903
 H         -2.2179974135        4.0377391801        1.6265515275
 H         -1.0706788527        2.7484732768        1.2338120559
 C         -3.0437013696        2.0571570111        1.6858614384
 H         -4.0505441896        2.4658135915        1.7702699389
 H         -2.6831832575        1.8036861754        2.6857279110
 H         -5.4438634312        3.1571682764       -1.9044719140
 H         -3.9776374533        2.2659386447       -2.3141581024
 H         -5.7414366948        0.9500232156       -1.1105804035
 H         -5.4899409788        1.9684055809        0.3175018399
 O         -3.8715077179       -0.4898140311       -0.9395262606
 C         -2.9302333316       -1.4929201431       -0.7462067219
 O         -2.9985998860       -2.4024701968       -1.5954224417
 O         -1.2709874044       -0.0903439773        2.1497244281
 C         -1.0208172597       -2.4411645890        0.6543407112
 C          0.2290094872       -2.1977517143       -0.1571000942
 C          0.2383209519       -2.3474557382       -1.5397529229
 C          1.3903268851       -2.0925842416       -2.2616275723
 C          2.5521268646       -1.6889201808       -1.6258696004
 C          2.5497955445       -1.5257093257       -0.2466749062
 C          1.3910301519       -1.7815124070        0.4762494210
 H          1.3878472844       -1.6414536640        1.5487003450
 N          3.7257578131       -1.1334377157        0.4194075739
 S          4.5546755380        0.2372304243       -0.0586837856
 O          4.9979514664        0.0742756246       -1.4194702525
 O          5.5855691219        0.4180603349        0.9365455972
 C          3.3756814065        1.5710067362        0.0457938742
 C          2.4823954616        1.7664692031       -0.9887519113
 C          1.5495709564        2.7855088640       -0.8814914638
 C          1.5271111399        3.5873062958        0.2493232587
 C          2.4269936715        3.3739793728        1.2819714311
 C          3.3579952624        2.3530315148        1.1835429522
 H          4.0809061989        2.1571311636        1.9591116646
 H          2.4035970179        3.9975561769        2.1611900965
 H          0.8045834618        4.3844466605        0.3259892062
 H          0.8431394727        2.9493956964       -1.6796043285
 H          2.5338804780        1.1306838654       -1.8575647973
 H          3.6367455646       -1.1395968063        1.4255095149
 H          3.4549227974       -1.4872623344       -2.1794396400
 H          1.3862923834       -2.2132719135       -3.3346459587
 H         -0.6686590175       -2.6477745137       -2.0419672144
 H         -0.7651790954       -2.2826546529        1.7109715970
 C         -1.5181776984       -3.8628961632        0.4948560928
 C         -0.7991458865       -4.9634299060        1.2138085513
 C         -2.1678714847       -4.5457126052        1.6591412079
 H         -2.9994561489       -5.2071748593        1.4683521880
 H         -2.2568283658       -3.9893004278        2.5809795374
 H         -0.6871200122       -5.9150000239        0.7174743959
 H          0.0409397175       -4.6909631276        1.8348807220
 H         -1.9145166570       -4.0787631080       -0.4879363421
