  62
        -98.94368952
 C         -1.1524267064       -1.6176343843       -0.4816339317
 C          0.0083062912       -1.3967516445       -1.2579753093
 C          1.2194383974       -2.1318275945       -0.8565179131
 C          1.1703183139       -2.9262155988        0.2264242455
 C          2.2858515112       -3.7492712887        0.8109735712
 C          3.0120111658       -2.9822113114        1.9284840356
 C          4.1620239673       -2.0991397648        1.4491243782
 H          4.9874206370       -2.7302634670        1.1117095837
 H          4.5138048776       -1.5260516943        2.3101641390
 C          3.7910534914       -1.1217989066        0.3308119056
 H          4.5168433807       -0.3047861481        0.3469722317
 H          2.8135105473       -0.6878185363        0.5547620423
 C          3.7974428749       -1.7672197447       -1.0640906629
 H          4.2888876213       -2.7380898476       -0.9984573670
 H          4.4054677245       -1.1589532335       -1.7373771616
 C          2.4246714432       -1.9329412167       -1.7344656139
 H          2.4771238218       -2.7649553388       -2.4450782572
 H          2.1910242153       -1.0382822836       -2.3200915610
 H          3.4090763548       -3.7000270449        2.6495006538
 H          2.2744478066       -2.3647994572        2.4487442047
 H          2.9796205215       -4.0612964883        0.0354402850
 H          1.8198954946       -4.6368069717        1.2445783660
 O          0.0485951000       -3.0609449063        0.9852762838
 C         -1.1253807806       -2.3967514345        0.6738931279
 O         -2.0535249568       -2.5937656542        1.4822337103
 O          0.0307736428       -0.6207433071       -2.2523049936
 C         -2.4279847089       -0.8737414774       -0.8452735958
 C         -2.6636197671        0.1749362693        0.2129893308
 C         -3.8061008133        0.2639651450        0.9953747271
 C         -3.8863165756        1.2138261584        2.0003826048
 C         -2.8333134370        2.0730665538        2.2551843112
 C         -1.6906178163        1.9998972328        1.4648780126
 C         -1.6305545443        1.0771737634        0.4359601056
 H         -0.7450777342        1.0203405301       -0.1792319617
 N         -0.6006726087        2.8559414830        1.6738073759
 S          0.9452972132        2.3506953840        1.2783179187
 O          1.1412605834        0.9418398206        1.5330193140
 O          1.8107623165        3.2455324701        2.0209784905
 C          1.1017302800        2.7228271055       -0.4558920038
 C          1.9414182245        1.9514627025       -1.2328982755
 C          2.0941204825        2.2660902736       -2.5735176029
 C          1.4102222222        3.3442133610       -3.1113756841
 C          0.5752114624        4.1139417780       -2.3159811302
 C          0.4192475774        3.8056539926       -0.9743722512
 H         -0.2264135787        4.3790825231       -0.3303949934
 H          0.0428394148        4.9514161546       -2.7376538374
 H          1.5270682503        3.5829721506       -4.1567692837
 H          2.7395753396        1.6631294981       -3.1919878760
 H          2.4459219444        1.1122092121       -0.7832695077
 H         -0.6287896988        3.4049880877        2.5198804049
 H         -2.8885848563        2.7904461233        3.0596811066
 H         -4.7761631399        1.2715643946        2.6089336052
 H         -4.6235897994       -0.4189462364        0.8333827536
 H         -2.2057739484       -0.3599779852       -1.7919106290
 C         -3.5899102855       -1.8177664319       -1.0567875698
 C         -4.7561992683       -1.3866503182       -1.8937365036
 C         -3.8020225690       -2.4185060370       -2.4130199004
 H         -4.1323562119       -3.4444607392       -2.4751501024
 H         -3.1151658141       -2.1332947480       -3.1963844417
 H         -5.7454888385       -1.7050306429       -1.6021291605
 H         -4.7200456930       -0.3991065721       -2.3278043071
 H         -3.7808955850       -2.4484421174       -0.1965306662
