  62
        -98.94365085
 C         -1.7834360946       -0.5201246098        0.4338815050
 C         -2.9562716757       -0.5211565745        1.2254138682
 C         -4.2166427158       -0.7083378365        0.4983435454
 C         -4.1974647127       -0.8860111101       -0.8354446165
 C         -5.3980841080       -1.1094008496       -1.7146271578
 C         -6.1041030029        0.1834039362       -2.1460705306
 C         -6.8992510238        0.8887741544       -1.0466247917
 H         -7.5126144440        1.6500945372       -1.5327727195
 H         -7.5776326708        0.1764348171       -0.5760426417
 C         -6.0339086252        1.5642239175        0.0264751392
 H         -5.0128757976        1.6754297225       -0.3462430144
 H         -6.4138327877        2.5696654119        0.2216735232
 C         -5.9947639093        0.8271672019        1.3653130039
 H         -6.9916220181        0.8249484528        1.8117423356
 H         -5.3267561732        1.3719973344        2.0375880579
 C         -5.4963370345       -0.6211613993        1.2740283631
 H         -5.2964392228       -0.9793690555        2.2869053383
 H         -6.2601850122       -1.2542791462        0.8233054310
 H         -6.7931942051       -0.0753742958       -2.9532781075
 H         -5.3578228468        0.8694791145       -2.5533464757
 H         -6.1089284952       -1.7615538872       -1.2065474120
 H         -5.0364338249       -1.6189584719       -2.6102400600
 O         -3.0454333146       -0.9012587513       -1.5571666489
 C         -1.8146264731       -0.6967984849       -0.9495554397
 O         -0.8476080302       -0.7017508925       -1.7336730441
 O         -2.9500368214       -0.3691513837        2.4769193954
 C         -0.4411257809       -0.3053805163        1.1076462905
 C          0.2394796449        0.9176606246        0.5445924313
 C         -0.4970683241        2.0896728695        0.3882150507
 C          0.0865293665        3.2276442344       -0.1318518550
 C          1.4226186653        3.2277488943       -0.4932658542
 C          2.1707842744        2.0693772158       -0.3290198897
 C          1.5781040502        0.9240951007        0.1867764711
 H          2.1762374504        0.0369411443        0.3077723421
 N          3.5206700405        2.0313900214       -0.7033476637
 S          4.6319249167        1.1740472645        0.2023656981
 O          4.3249585629        1.2248485544        1.6127810313
 O          5.9143207026        1.7237411859       -0.1844105019
 C          4.5239099433       -0.5012180118       -0.3903781189
 C          4.7188501441       -1.5351763686        0.5039901165
 C          4.6778080350       -2.8408637232        0.0404579317
 C          4.4438935324       -3.0882535941       -1.3032585424
 C          4.2532763618       -2.0384937697       -2.1888684104
 C          4.2972368902       -0.7307386064       -1.7327412837
 H          4.1469848204        0.1060719486       -2.3941258019
 H          4.0671025472       -2.2346273463       -3.2325716436
 H          4.4079834196       -4.1049114296       -1.6619120498
 H          4.8258006795       -3.6587409209        0.7278813937
 H          4.8859643482       -1.2970569743        1.5425864018
 H          3.8990011188        2.9032367754       -1.0429316133
 H          1.8807396161        4.1159109802       -0.9013769839
 H         -0.5005200678        4.1257698181       -0.2531298196
 H         -1.5397976860        2.0933026666        0.6759710217
 H         -0.6722651104       -0.1086225748        2.1657398384
 C          0.3982728050       -1.5626002699        1.0196603012
 C          1.4116534749       -1.8733514099        2.0789861128
 C          0.1455110418       -2.6702681194        1.9964396588
 H          0.1993801776       -3.6896020571        1.6453179531
 H         -0.6150057469       -2.5056751184        2.7457860674
 H          2.3348338866       -2.3466946538        1.7810345425
 H          1.5217252271       -1.1679232110        2.8890463573
 H          0.6266347317       -1.8388313376       -0.0039170191
