  62
        -98.94158299
 C          1.7770115616        1.0749957625        0.6654812856
 C          1.9534732113       -0.3122507531        0.9168145246
 C          3.3029095715       -0.8464508123        0.7103359065
 C          4.2926033367       -0.0201710348        0.3269068560
 C          5.7323025018       -0.4001139689        0.1102656474
 C          6.0229519751       -0.9860275862       -1.2781048939
 C          5.4931214104       -2.4016544989       -1.5096334464
 H          5.9510934935       -2.7681146425       -2.4305566826
 H          5.8279614609       -3.0502606191       -0.6995401384
 C          3.9667454293       -2.4914045827       -1.6474958893
 H          3.5601389841       -1.4981588181       -1.8521881559
 H          3.7154462681       -3.1214310136       -2.5037062722
 C          3.2522583132       -3.0765408363       -0.4290812973
 H          2.1765206739       -3.0556760706       -0.6210560009
 H          3.5518198105       -4.1182435608       -0.2946184939
 C          3.5138166516       -2.3206102140        0.8802251466
 H          4.5242825678       -2.5216002699        1.2357280979
 H          2.8007363334       -2.6736901760        1.6289300995
 H          5.6103743804       -0.3140767284       -2.0342714679
 H          7.1080530637       -1.0016014342       -1.4042387020
 H          6.3158830777        0.5157274569        0.2263385666
 H          6.0428221469       -1.1094809079        0.8779894697
 O          4.0887973975        1.3037184233        0.1062490360
 C          2.8319655407        1.8805494969        0.2365166972
 O          2.8170626337        3.0937650978       -0.0518989459
 O          1.0233338738       -1.0661824951        1.3078987144
 C          0.3755518437        1.6204495254        0.8741072213
 C         -0.3974531689        1.6772883863       -0.4218777162
 C          0.0014822347        2.4941966013       -1.4746049591
 C         -0.7403257676        2.5388658492       -2.6405706896
 C         -1.8970532374        1.7900807642       -2.7722879222
 C         -2.3025393984        0.9690315093       -1.7269485400
 C         -1.5437980560        0.9100372616       -0.5662975827
 H         -1.8538361419        0.2596938677        0.2371628785
 N         -3.4582847227        0.1848607625       -1.8339999010
 S         -4.4295626033       -0.0828242680       -0.4986214442
 O         -5.7111790485       -0.4569099275       -1.0577197921
 O         -4.4343737621        1.0529944477        0.3933312728
 C         -3.7118446929       -1.5009408821        0.3012143877
 C         -3.4879287605       -1.4757247557        1.6631196866
 C         -2.9491446173       -2.5958435306        2.2755176982
 C         -2.6465228520       -3.7164836320        1.5184195708
 C         -2.8803777395       -3.7271568290        0.1517306279
 C         -3.4201722410       -2.6109644157       -0.4660900702
 H         -3.6160079062       -2.5827671511       -1.5250933510
 H         -2.6406421822       -4.6007632272       -0.4329382601
 H         -2.2224363570       -4.5850274899        1.9970813337
 H         -2.7625071659       -2.5876625687        3.3375067915
 H         -3.7298469987       -0.5797978486        2.2135640763
 H         -3.9966174298        0.3237677028       -2.6764056516
 H         -2.4811741771        1.8382199626       -3.6788349121
 H         -0.4210401288        3.1737904767       -3.4534382565
 H          0.8990090670        3.0845120435       -1.3707858081
 H         -0.1234981868        0.8831767471        1.5181504422
 C          0.3291454225        2.9671256882        1.5699542915
 C         -0.9728677192        3.4259240679        2.1532859147
 C          0.1527907012        3.0209461198        3.0562005438
 H          0.6727062664        3.7892588113        3.6086059344
 H          0.0701774363        2.0827178723        3.5852317176
 H         -1.2255081492        4.4730689114        2.0852311569
 H         -1.8239143223        2.7664352964        2.0618996329
 H          0.9677120170        3.7124346145        1.1145842681
