  62
        -98.93916670
 C         -1.8568625796       -0.8531356103       -0.1995740132
 C         -2.4629272088       -0.2575574801        0.9292201787
 C         -3.5582602976        0.6928951669        0.6684901682
 C         -3.9068453811        0.9640666714       -0.6033961359
 C         -4.9423658595        1.9118422046       -1.1723150649
 C         -6.0223690650        2.5185526614       -0.2802988989
 C         -7.0452375280        1.5176098305        0.2562259518
 H         -7.7008762843        2.0411357991        0.9555002809
 H         -7.6594644882        1.1687473268       -0.5777317153
 C         -6.4638474788        0.2861657224        0.9462492289
 H         -5.8848819590       -0.2977542999        0.2278227267
 H         -7.2990990844       -0.3402510003        1.2709430592
 C         -5.5949011527        0.5713267641        2.1695149218
 H         -5.3817092692       -0.3864811762        2.6516987744
 H         -6.1503858471        1.1864972210        2.8800347855
 C         -4.2465613536        1.2533863767        1.8799023323
 H         -4.3587299232        2.3317741123        1.7946762329
 H         -3.5818278219        1.0596144048        2.7270118411
 H         -6.5621036098        3.2433970520       -0.8958984501
 H         -5.5694022629        3.0755086535        0.5346907336
 H         -5.4206429129        1.3696720024       -1.9942707601
 H         -4.3749729455        2.7283105728       -1.6330802311
 O         -3.2647807070        0.3910308071       -1.6637948480
 C         -2.2392839101       -0.5262326495       -1.4992417753
 O         -1.7648387950       -0.9623309798       -2.5641169389
 O         -2.0957182875       -0.4979597280        2.1118120897
 C         -0.7347143729       -1.8540824871        0.0055734840
 C          0.5382171833       -1.3422659649       -0.6228286288
 C          1.3527641467       -2.1118133088       -1.4422472490
 C          2.5037198002       -1.5731235410       -1.9927145910
 C          2.8727990506       -0.2672237852       -1.7313788267
 C          2.0764927215        0.5047062167       -0.8937297205
 C          0.9264050218       -0.0372550421       -0.3421156337
 H          0.3057343733        0.5678241961        0.3073914217
 N          2.4515411175        1.8273192406       -0.6048715384
 S          4.0576871387        2.1299034238       -0.2466047523
 O          4.0419165822        3.3041434570        0.5974205648
 O          4.8149604710        2.2455107281       -1.4680033581
 C          4.6111152675        0.7044164594        0.6729913865
 C          3.9632656173        0.4004917457        1.8540477922
 C          4.3583604784       -0.7202247669        2.5659016368
 C          5.3896788122       -1.5140050768        2.0871616564
 C          6.0337713342       -1.1923303525        0.9027917657
 C          5.6411517030       -0.0735963426        0.1853787307
 H          6.1120651456        0.2113580487       -0.7412614126
 H          6.8366065248       -1.8100239646        0.5340079637
 H          5.6924127715       -2.3874327873        2.6428266803
 H          3.8577737552       -0.9710501383        3.4874277403
 H          3.1676898357        1.0396870635        2.2028090680
 H          1.8336271010        2.3005379641        0.0372199253
 H          3.7540530245        0.1721425274       -2.1696977033
 H          3.1196477490       -2.1786897956       -2.6396175532
 H          1.0814809978       -3.1310320185       -1.6614617634
 H         -0.5817464970       -1.9001531479        1.0941917470
 C         -1.1497917638       -3.2245914566       -0.4858654945
 C         -0.5699452151       -4.4581623261        0.1372641699
 C         -1.9964857833       -4.0845983865        0.4023932992
 H         -2.7799196101       -4.6760759199       -0.0472288678
 H         -2.2521094685       -3.6916896899        1.3757603119
 H         -0.3747077281       -5.3117480474       -0.4940750204
 H          0.1441378246       -4.3262046108        0.9357531721
 H         -1.3670307186       -3.2373963906       -1.5480256660
