  62
        -98.94551191
 C         -2.4953835448       -1.1942730475        0.0084897665
 C         -3.1559880401       -0.3798120109        0.9587054685
 C         -3.8221932440        0.8139720232        0.4275206432
 C         -3.7762024285        1.0717475840       -0.8924220682
 C         -4.4226710610        2.2387607895       -1.5882988941
 C         -3.5796733843        3.5212620987       -1.5656266212
 C         -3.5029223866        4.2244864729       -0.2098511176
 H         -3.0672002170        5.2101835977       -0.3843770674
 H         -4.5109688210        4.3766659551        0.1771156453
 C         -2.6536147121        3.4898073282        0.8370958767
 H         -1.9895119122        4.2020729427        1.3328125190
 H         -2.0134515691        2.7575283350        0.3372887024
 C         -3.4628308849        2.7865749640        1.9275636155
 H         -2.7654955614        2.2722014156        2.5941302660
 H         -4.0036602451        3.5301251800        2.5168931450
 C         -4.4676121002        1.7523926992        1.4022926475
 H         -4.8236605018        1.1603910304        2.2488895638
 H         -5.3182310771        2.2543942531        0.9425085557
 H         -2.5699675219        3.2827556528       -1.9096798220
 H         -4.0203976719        4.2143970885       -2.2858392021
 H         -5.3992998127        2.4355673984       -1.1453857986
 H         -4.5649495416        1.9396261142       -2.6288722812
 O         -3.1284275622        0.2651076976       -1.7740399222
 C         -2.4465735047       -0.8663889804       -1.3467779798
 O         -1.8602229304       -1.4831210472       -2.2555831702
 O         -3.1824576973       -0.6353853560        2.1933823497
 C         -1.7500675998       -2.4263998661        0.4921612082
 C         -0.2727245325       -2.2304551389        0.2539758485
 C          0.5236298833       -3.1184850248       -0.4552704789
 C          1.8641542346       -2.8412576321       -0.6650294323
 C          2.4389022433       -1.6859985126       -0.1687242997
 C          1.6525986886       -0.7943628369        0.5500851901
 C          0.3124056170       -1.0745931367        0.7585758377
 H         -0.3014175122       -0.3754841558        1.3143032254
 N          2.2300686927        0.3810675130        1.0692964796
 S          3.0035576423        1.3972847303       -0.0251029350
 O          2.9494535701        2.7118120407        0.5777243526
 O          2.4433400950        1.2747068411       -1.3515468831
 C          4.6880927659        0.8215504582       -0.0104062485
 C          5.2958287453        0.4365099551       -1.1891381515
 C          6.6095836228       -0.0050637358       -1.1518802980
 C          7.2878267980       -0.0525233924        0.0564456343
 C          6.6633825288        0.3401534223        1.2312067704
 C          5.3510615777        0.7837618139        1.2008931732
 H          4.8295952163        1.1007779270        2.0885270632
 H          7.1941148438        0.3017105732        2.1687793237
 H          8.3092234564       -0.3979415007        0.0826170644
 H          7.0964489892       -0.3103166954       -2.0641746972
 H          4.7256674014        0.4839683547       -2.1033849920
 H          1.5924381043        0.9163620768        1.6419694984
 H          3.4803864760       -1.4650501797       -0.3364416017
 H          2.4698075428       -3.5358865075       -1.2267425758
 H          0.0927858731       -4.0206203585       -0.8567609325
 H         -1.9184383958       -2.4593803799        1.5788851622
 C         -2.3147009668       -3.6856776877       -0.1273743483
 C         -2.1654734982       -4.9993523010        0.5783403316
 C         -3.5061643972       -4.3340044607        0.5092863976
 H         -4.2638353865       -4.7599900820       -0.1310121392
 H         -3.8997483844       -3.8778724703        1.4060175907
 H         -2.0041757421       -5.8872993899       -0.0137508661
 H         -1.6489405860       -5.0004858650        1.5261217562
 H         -2.2712211984       -3.6749084173       -1.2103224623
