  62
        -98.94029615
 C         -2.4968545476       -1.1514954511        0.0337920277
 C         -2.6230947998       -0.0226726356       -0.8112989679
 C         -3.9903933792        0.4786870619       -0.9994270648
 C         -5.0224860142       -0.1513242684       -0.4095608855
 C         -6.4733413195        0.2322827635       -0.5194875760
 C         -6.9020764415        1.3324880182        0.4613688488
 C         -6.3866876287        2.7345558562        0.1337494571
 H         -6.6281753516        2.9764352731       -0.9016563013
 H         -6.9354585740        3.4333625776        0.7682093587
 C         -4.8826303898        2.9290702699        0.3723205807
 H         -4.7163647852        3.8672627059        0.9064123221
 H         -4.5074707854        2.1268717900        1.0120141264
 C         -4.0392980034        2.9781788678       -0.9018693301
 H         -4.3114182364        3.8585251209       -1.4883634727
 H         -2.9889555326        3.0744743550       -0.6145438422
 C         -4.1719345178        1.7367240590       -1.7935752761
 H         -5.1380092806        1.7351327030       -2.2977202980
 H         -3.3815264340        1.7697291088       -2.5474123619
 H         -6.5771559490        1.0503407598        1.4654841944
 H         -7.9941068949        1.3610127574        0.4612066764
 H         -6.6932142382        0.5463173343       -1.5400819035
 H         -7.0504242182       -0.6684683596       -0.3000259779
 O         -4.8599686811       -1.2549215250        0.3689554247
 C         -3.5983240871       -1.7642949150        0.6301513593
 O         -3.5895123046       -2.7493285748        1.3966598606
 H          1.4292860836       -0.9328509996       -0.4183720311
 C          1.0325335236       -0.3808734621        0.4168132342
 C         -0.2333897155       -0.6529653601        0.9086188729
 C         -0.7009127181        0.0862563827        1.9929844938
 C          0.0748051292        1.0782659385        2.5593412729
 C          1.3395369595        1.3466674915        2.0656183128
 C          1.8163650685        0.6146075341        0.9852809063
 N          3.0827595593        0.8877307837        0.4443097403
 S          3.9945727810       -0.3782913986       -0.1963345045
 O          3.5464102974       -0.6559881273       -1.5372891675
 O          4.0027655571       -1.4969701969        0.7198750401
 C          5.6022622071        0.3921537258       -0.2488450792
 C          5.8884456623        1.2518018985       -1.2927894054
 C          7.1233108754        1.8797405231       -1.3240451863
 C          8.0460530863        1.6401309254       -0.3163950157
 C          7.7455330492        0.7733553038        0.7234987197
 C          6.5117076837        0.1427104778        0.7614333311
 H          6.2372970466       -0.5448467734        1.5452640754
 H          8.4662281439        0.5867716159        1.5032775463
 H          9.0065646093        2.1299749940       -0.3436860652
 H          7.3615783706        2.5517531049       -2.1326940497
 H          5.1433485099        1.4003500718       -2.0570438298
 H          3.6419752868        1.4878690951        1.0348971342
 H          1.9469388270        2.1222802093        2.5068727909
 H         -0.3045980753        1.6446829654        3.3967338072
 H         -1.6877055178       -0.1285219381        2.3818900175
 C         -1.1221518794       -1.7248154731        0.3251586694
 H         -1.2685303032       -2.5003943080        1.0919551663
 C         -0.5502067632       -2.3739814441       -0.9172827234
 C          0.4528837018       -3.4799897231       -0.7947361674
 C         -0.9417215063       -3.7799830255       -1.2540748000
 H         -1.0998891664       -4.0371610166       -2.2906048309
 H         -1.6086494599       -4.2853383004       -0.5705146615
 H          1.2583372307       -3.5253557014       -1.5128889457
 H          0.7403685345       -3.7858801200        0.2002594116
 H         -0.4378252738       -1.6753535174       -1.7391984192
 O         -1.6502556181        0.5395193787       -1.3781216255
