  62
        -98.93814778
 C         -2.6953922746       -1.2319155543        0.2408860780
 C         -2.9987086731       -0.2567004375        1.2259710368
 C         -4.1236895335        0.6361944949        0.9339669825
 C         -4.8168195407        0.4786287479       -0.2080599876
 C         -6.0009653976        1.2969536363       -0.6460315354
 C         -5.6244972951        2.6120820644       -1.3422591959
 C         -5.0682903600        3.6998123623       -0.4223907127
 H         -5.0548778185        4.6282274279       -0.9968021053
 H         -5.7483362944        3.8466910842        0.4173033627
 C         -3.6518644078        3.4241193968        0.1016103807
 H         -3.1796459024        2.6517012334       -0.5100580749
 H         -3.0443339818        4.3262614135        0.0009333229
 C         -3.5896713115        2.9985642777        1.5686903278
 H         -3.9340851012        3.8180948095        2.2034210461
 H         -2.5463883968        2.7916033389        1.8207510454
 C         -4.4129214114        1.7464784153        1.8982357327
 H         -4.1301051417        1.4023588448        2.8961298870
 H         -5.4765757477        1.9837756060        1.8982281841
 H         -6.5280776724        2.9976411306       -1.8201200415
 H         -4.8989528736        2.3948710817       -2.1295318665
 H         -6.6391354605        1.5075704987        0.2126013986
 H         -6.5606045846        0.6808891333       -1.3531180775
 O         -4.5164123534       -0.4869234385       -1.1140341705
 C         -3.4343275275       -1.3435854856       -0.9376732980
 O         -3.2676366840       -2.1338935933       -1.8838610056
 O         -2.3578567381       -0.1454319646        2.3058946950
 C         -1.5029368599       -2.1277487146        0.5265285992
 C         -0.2502240323       -1.4919612009       -0.0207030002
 C         -0.1421340371       -1.1567708986       -1.3674635661
 C          1.0070261339       -0.5565319808       -1.8476599599
 C          2.0626105903       -0.2665693771       -0.9997929986
 C          1.9633811549       -0.5914174702        0.3459674399
 C          0.8119418757       -1.2070017677        0.8236384829
 H          0.7325420633       -1.4477226050        1.8752480459
 N          3.0117146004       -0.2718146256        1.2196067405
 S          4.6002595993       -0.5397327724        0.7608657869
 O          4.7073744864       -1.6619045608       -0.1418784632
 O          5.3340709620       -0.6410001900        2.0029442428
 C          5.0667028610        0.9641487155       -0.0702167549
 C          4.8712006976        2.1618498723        0.5891937851
 C          5.2372307603        3.3401463121       -0.0413555670
 C          5.7929194121        3.3012701513       -1.3116215808
 C          5.9870575574        2.0904879513       -1.9584237210
 C          5.6216483705        0.9081717430       -1.3336219533
 H          5.7487583913       -0.0553910282       -1.8011838549
 H          6.4197250714        2.0621563775       -2.9455968738
 H          6.0760602655        4.2202624946       -1.8001972987
 H          5.0875167965        4.2836349288        0.4584906444
 H          4.4392971533        2.1507830087        1.5760704378
 H          2.8489708983       -0.5319013112        2.1809304466
 H          2.9565499586        0.2058826501       -1.3723299703
 H          1.0808237714       -0.3047361253       -2.8948754239
 H         -0.9691754774       -1.3719086876       -2.0276122055
 H         -1.4168416914       -2.1302604984        1.6249331591
 C         -1.6996430850       -3.5711384794        0.0871321453
 C         -0.8941066692       -4.2373267398       -0.9837709683
 C         -0.6739193586       -4.6043661915        0.4510801257
 H         -1.0083240639       -5.5691477677        0.8011363054
 H          0.2360640659       -4.2562911672        0.9177854034
 H         -1.4050024068       -4.9359873991       -1.6284864079
 H         -0.1279545510       -3.6662871449       -1.4838247794
 H         -2.7383754822       -3.8766235606        0.1582122113
