  62
        -98.94597117
 C         -1.5758032167       -1.5720231575       -0.3024936826
 C         -1.4255807833       -0.2065651504       -0.6468523405
 C         -2.6727921110        0.5652236053       -0.7505283676
 C         -3.8497262001       -0.0493315106       -0.5341820459
 C         -5.1853285748        0.6352338060       -0.5369582788
 C         -5.5558602573        1.1282476394        0.8692368233
 C         -4.4418159204        1.9109756800        1.5649600840
 H         -3.6007832899        1.2405697139        1.7567688425
 H         -4.8273035012        2.2281977660        2.5364574664
 C         -3.9446889199        3.1372703579        0.7868056593
 H         -3.8535979332        3.9766824143        1.4793469207
 H         -4.6803256724        3.4187450852        0.0323917424
 C         -2.5790319871        2.9571075939        0.1208997118
 H         -1.8575427003        2.5857395645        0.8528588379
 H         -2.2343335894        3.9391159904       -0.2124146398
 C         -2.5501612180        2.0226227432       -1.0944870582
 H         -1.5731045490        2.1312341878       -1.5735798628
 H         -3.3228004646        2.3181937753       -1.8069149000
 H         -5.8007404169        0.2605608507        1.4864079212
 H         -6.4483883400        1.7519722703        0.7923066979
 H         -5.1578515559        1.4725665038       -1.2313916372
 H         -5.9392321519       -0.0788894988       -0.8724210010
 O         -3.9534240938       -1.3689083318       -0.2287149684
 C         -2.8228434244       -2.1573926314       -0.0873496335
 O         -3.0562461280       -3.3421389440        0.2282556711
 H          2.2277356959       -1.3970693407       -0.2681772421
 C          1.7863700944       -1.3321117116        0.7112511533
 C          0.5176628470       -1.8318994317        0.9525971562
 C         -0.0064085405       -1.7358412102        2.2401396070
 C          0.7205629145       -1.1494885857        3.2571896903
 C          1.9807939774       -0.6330151025        3.0085284246
 C          2.5127593507       -0.7265409752        1.7284841151
 N          3.7927583445       -0.2276584789        1.4535697395
 S          4.1788322874        0.4238239782       -0.0320752139
 O          4.3205996398       -0.6213721155       -1.0152869262
 O          5.3784738784        1.1934632580        0.2315940083
 C          2.8695339521        1.5432092275       -0.4935370761
 C          2.4547779120        1.5747742709       -1.8076066911
 C          1.5020115639        2.5039982297       -2.1893792569
 C          0.9789863578        3.3788828872       -1.2522549134
 C          1.3977630309        3.3280488413        0.0673009334
 C          2.3565804654        2.4066550046        0.4526087098
 H          2.7021624799        2.3526820465        1.4724984160
 H          0.9771376363        4.0018760996        0.7968728170
 H          0.2348553250        4.1011415345       -1.5505452122
 H          1.1646260357        2.5348107563       -3.2134638867
 H          2.8779354211        0.8674162780       -2.5032762586
 H          4.2344680251        0.2733459853        2.2098408878
 H          2.5488634031       -0.1664751461        3.7989288798
 H          0.3018305209       -1.0847935327        4.2502403811
 H         -0.9978664875       -2.1265465814        2.4275969239
 C         -0.3421128201       -2.4409358631       -0.1274914150
 H         -0.7007644850       -3.4185529194        0.2245499937
 C          0.3754454986       -2.6291462716       -1.4465511785
 C          1.3087758489       -3.7868591458       -1.6284963482
 C         -0.0118012864       -3.7692644085       -2.3371151015
 H         -0.0233140899       -3.6090298577       -3.4048146964
 H         -0.7899166719       -4.4321500086       -1.9870273110
 H          1.4293095292       -4.4654355569       -0.7973727712
 H          2.2093719325       -3.6364290737       -2.2047997097
 H          0.6324216554       -1.6905850627       -1.9241815420
 O         -0.3136725894        0.3419881103       -0.8537181336
