  62
        -98.93759044
 C         -1.7180264813       -1.4395590916        0.2867941625
 C         -1.8624944941       -0.2072155521        0.9748358204
 C         -3.1431966519        0.5027530483        0.8198709882
 C         -4.1038336502       -0.0416623764        0.0537049464
 C         -5.5132204613        0.4383623508       -0.1926945089
 C         -5.7406547983        1.9432165045       -0.3722292325
 C         -4.6256760853        2.6746095206       -1.1328457220
 H         -3.9467001443        1.9496192080       -1.5851756529
 H         -5.0697899866        3.2557151262       -1.9430557628
 C         -3.8285408735        3.6333500704       -0.2464477842
 H         -3.3214621873        4.3609857560       -0.8844545635
 H         -4.5231709173        4.1845272631        0.3910486494
 C         -2.7608156355        2.9745638986        0.6249708252
 H         -2.3220858812        3.7495648032        1.2585883502
 H         -1.9643098827        2.5803306008       -0.0120734925
 C         -3.2511038408        1.8259206432        1.5228607492
 H         -2.5830637640        1.7608636007        2.3863182131
 H         -4.2604146087        2.0097906765        1.8831461925
 H         -5.8778402378        2.4117911769        0.6011251040
 H         -6.6842191165        2.0549959387       -0.9094469706
 H         -6.1374416641        0.0786841609        0.6310892745
 H         -5.8384367672       -0.0892200983       -1.0929569176
 O         -3.9133114937       -1.2130086208       -0.6136967086
 C         -2.7289505495       -1.9303770288       -0.5385772677
 O         -2.7291011804       -2.9546393547       -1.2493253581
 O         -0.9596285807        0.2721715170        1.7115304317
 C         -0.4095612077       -2.1803699288        0.4955422575
 C          0.6082710070       -1.8487047848       -0.5698067442
 C          0.3211680230       -1.9970929436       -1.9224698361
 C          1.2788822676       -1.6994094544       -2.8745022175
 C          2.5309350605       -1.2434254272       -2.5000591288
 C          2.8306540840       -1.0988298494       -1.1502734919
 C          1.8690754870       -1.4072669378       -0.1972489347
 H          2.1182363877       -1.3018770921        0.8470289879
 N          4.1031383673       -0.6727179894       -0.7455288566
 S          4.3278004211        0.3478913901        0.5593800339
 O          5.7110848701        0.7556495610        0.4499175356
 O          3.9580427261       -0.3216956584        1.7799958993
 C          3.2684530773        1.7481213046        0.2517402563
 C          3.7476338296        2.7450619450       -0.5776671269
 C          2.9360526857        3.8291857369       -0.8660928420
 C          1.6601666999        3.8984888518       -0.3256173625
 C          1.1964297365        2.8920745609        0.5058957345
 C          2.0029509575        1.8032677128        0.7978637913
 H          1.6457612574        1.0146777707        1.4397341994
 H          0.2073038063        2.9295670209        0.9331536291
 H          1.0255997358        4.7416004414       -0.5495427933
 H          3.2978041876        4.6153747432       -1.5091046249
 H          4.7507510147        2.6609170360       -0.9634228649
 H          4.7297761861       -0.4399363503       -1.5018137434
 H          3.2750764096       -1.0101651943       -3.2462316604
 H          1.0465333224       -1.8196855188       -3.9219307319
 H         -0.6549359815       -2.3515624751       -2.2171387519
 H         -0.0150979411       -1.8069958159        1.4512478385
 C         -0.5673091632       -3.6848144354        0.6054073090
 C          0.4939801359       -4.4751891694        1.3075060877
 C         -0.8532308519       -4.2995509275        1.9408275043
 H         -1.5201834676       -5.1473908542        1.9845349402
 H         -0.9339362308       -3.6370938685        2.7906154798
 H          0.7554712136       -5.4462814224        0.9161072587
 H          1.3279726536       -3.9331832351        1.7284912055
 H         -1.0396777850       -4.1318038984       -0.2594074901
