  62
        -98.94090301
 C         -2.3854712202       -1.2574252601        0.1386480405
 C         -2.2743765203        0.1525099999        0.0355806405
 C         -3.3942515004        0.9222669999        0.6000737004
 C         -4.4144687905        0.2897225598        1.2049286502
 C         -5.6156221406        0.9388838097        1.8369115900
 C         -6.7356023105        1.2784640096        0.8438553498
 C         -6.4468902305        2.4591270996       -0.0841824401
 H         -7.3886334004        2.7225177195       -0.5697407003
 H         -6.1351369306        3.3189782096        0.5096055799
 C         -5.3977296303        2.1725676497       -1.1675360100
 H         -5.2666635602        1.0929731597       -1.2716095899
 H         -5.7562734902        2.5450471996       -2.1297763400
 C         -4.0334730504        2.8145582298       -0.9141974297
 H         -4.1300912805        3.9023788198       -0.9364695598
 H         -3.3597840002        2.5220115398       -1.7240272796
 C         -3.3810860705        2.4098024899        0.4144698504
 H         -2.3369977906        2.7336566299        0.3984405205
 H         -3.8857393207        2.9014541598        1.2460151403
 H         -7.6282656706        1.5134804695        1.4279922297
 H         -6.9540269203        0.3903660995        0.2463131898
 H         -5.3087908508        1.8422149397        2.3648705901
 H         -6.0061036807        0.2254125996        2.5657915000
 O         -4.4580396704       -1.0629392102        1.3312966002
 C         -3.4602836102       -1.8619166202        0.7992587304
 O         -3.6373725401       -3.0825935502        0.9835933903
 O         -1.3101716802        0.7581067200       -0.5001372993
 C         -1.3269289600       -2.2045077700       -0.4042523093
 C          0.0397195999       -1.7655734899        0.0569653509
 C          0.4380380997       -2.0427025198        1.3610584609
 C          1.6696422596       -1.6218176197        1.8261110011
 C          2.5247792397       -0.9087896196        1.0040076713
 C          2.1268344298       -0.6087907597       -0.2915486688
 C          0.8982008700       -1.0529267798       -0.7636757590
 H          0.5909326601       -0.8017908998       -1.7669235390
 N          2.9821343899        0.1181552404       -1.1345172387
 S          3.8415496997        1.4193484205       -0.5200572885
 O          3.1485678195        2.0764605604        0.5633900413
 O          4.1547384998        2.2358508005       -1.6730801785
 C          5.3460017097        0.6760795506        0.0813425617
 C          6.0399858099       -0.1712535493       -0.7601378082
 C          7.2165297699       -0.7473925092       -0.3086287280
 C          7.6797740096       -0.4656119092        0.9679250420
 C          6.9745324094        0.3908059208        1.7991607719
 C          5.7961084395        0.9693158507        1.3537034618
 H          5.2113465993        1.6359887606        1.9676899917
 H          7.3358489993        0.6097850308        2.7911474720
 H          8.5953280896       -0.9161568291        1.3173288722
 H          7.7674416800       -1.4142559392       -0.9521317379
 H          5.6484234300       -0.3634849394       -1.7449099683
 H          2.5691448000        0.3492016804       -2.0265600387
 H          3.4802465896       -0.5651969495        1.3651074214
 H          1.9676338495       -1.8473980397        2.8388685612
 H         -0.2368261603       -2.5852363899        2.0091976808
 H         -1.5472504900       -3.1738720500        0.0703737906
 C         -1.4004420598       -2.4331429800       -1.9073101793
 C         -2.7293879896       -2.5954019201       -2.5815542495
 C         -1.8818325097       -1.3957484800       -2.8745158094
 H         -1.3982059296       -1.3352006600       -3.8389928893
 H         -2.1880175798       -0.4388416001       -2.4824621195
 H         -2.8342334195       -3.3533653401       -3.3429502495
 H         -3.6120955397       -2.4620188202       -1.9727355597
 H         -0.6022406396       -3.0836384299       -2.2520687192
