  62
        -98.93441433
 C         -2.0288748790       -0.9914179429        0.5424786375
 C         -2.7361421983       -0.0282761989        1.3038535157
 C         -4.1636963338        0.1542757183        0.9936449303
 C         -4.7172617403       -0.5951727802        0.0248646241
 C         -6.1307235213       -0.5390785448       -0.4851519440
 C         -6.2330960878        0.3978254087       -1.7005917303
 C         -6.4736114916        1.8684396455       -1.3618540218
 H         -6.3951442013        2.4336672324       -2.2934462280
 H         -7.4936366594        1.9890760550       -0.9908752883
 C         -5.5070923016        2.4713888278       -0.3389613740
 H         -4.4884752497        2.1443249170       -0.5565583032
 H         -5.5286053885        3.5565825665       -0.4573235454
 C         -5.8693057475        2.1229828002        1.1125393070
 H         -5.9076809939        3.0394227482        1.7052394044
 H         -6.8723842918        1.6974202533        1.1372802407
 C         -4.8895678040        1.1778677497        1.8233316405
 H         -5.4165622044        0.6614856970        2.6329021993
 H         -4.0950221750        1.7651711132        2.2945170639
 H         -5.3103422407        0.2994730143       -2.2781627630
 H         -7.0537507350        0.0591128366       -2.3362345614
 H         -6.8139921316       -0.2374759977        0.3031397591
 H         -6.3864075119       -1.5515674345       -0.8045660685
 O         -4.0050289037       -1.5106451181       -0.6839541502
 C         -2.6514609356       -1.7282087625       -0.4658149241
 O         -2.1555784442       -2.5834582440       -1.2201547103
 O         -2.1903932804        0.6536289765        2.2143881072
 C         -0.5578252689       -1.1661485812        0.8730131866
 C          0.2915958931       -0.2383306997        0.0430005456
 C          0.1596431683       -0.1848414502       -1.3409929041
 C          0.9550966622        0.6633072064       -2.0899614455
 C          1.9006420739        1.4677171068       -1.4778065180
 C          2.0443593189        1.4170148379       -0.0981372798
 C          1.2410108746        0.5684391694        0.6527260537
 H          1.3452686181        0.5467838158        1.7290843996
 N          3.0336629724        2.2082789908        0.5206727902
 S          4.6089747181        1.9113200408        0.0208963141
 O          5.4520386427        2.4170194420        1.0797513031
 O          4.8094186216        2.4853072217       -1.2846618199
 C          4.6971126461        0.1324254346       -0.0639093736
 C          4.8748148043       -0.5696988531        1.1119322076
 C          4.8436039625       -1.9542569719        1.0774961623
 C          4.6212998877       -2.6095990579       -0.1241095781
 C          4.4468029907       -1.8903037764       -1.2958138712
 C          4.4844282466       -0.5052948477       -1.2694663960
 H          4.3568994033        0.0886336688       -2.1592693175
 H          4.2743677280       -2.4032331768       -2.2282541029
 H          4.5803171794       -3.6867227691       -0.1465746071
 H          4.9825325599       -2.5174195194        1.9863732919
 H          5.0457682745       -0.0232890897        2.0258858816
 H          2.9839185683        2.1926008452        1.5296667980
 H          2.5338617057        2.1292525683       -2.0467598335
 H          0.8388673036        0.6977332103       -3.1627006744
 H         -0.5684996188       -0.8210503609       -1.8212758180
 H         -0.4700368165       -0.8406565068        1.9217352709
 C         -0.0836958859       -2.6117428201        0.8045638472
 C          0.9099383800       -3.1113700958       -0.1971507099
 C          1.3106822852       -2.9574265297        1.2370338192
 H          1.4622622042       -3.8433366543        1.8342603107
 H          1.9710398356       -2.1386222537        1.4811547522
 H          0.7579892391       -4.1030611171       -0.5940411105
 H          1.3110118431       -2.4124000008       -0.9139550718
 H         -0.8672431292       -3.3066251482        1.0876595367
