  62
        -98.93742091
 C          1.9678637302        1.4709743292        0.2929428191
 C          2.0021074001        0.3205575994        1.1205939194
 C          2.9735051096       -0.7291190610        0.7735577393
 C          3.7592620393       -0.5645380015       -0.3069673410
 C          4.8644020289       -1.4282684819       -0.8780570212
 C          5.0334163386       -2.8770471619       -0.4281110609
 C          3.8999973081       -3.8123420116       -0.8480060403
 H          3.9436785977       -3.9439633619       -1.9321792703
 H          4.0744001880       -4.7874177116       -0.3879902302
 C          2.4902480284       -3.3414412411       -0.4981354200
 H          2.2704686885       -2.4140536512       -1.0309347901
 H          1.7898222880       -4.0968869610       -0.8635244896
 C          2.2179633489       -3.1336834807        0.9903499201
 H          2.4626377888       -4.0444748107        1.5402029302
 H          1.1473251690       -2.9451997303        1.1059880004
 C          2.9617644095       -1.9546805908        1.6407279496
 H          3.9730160295       -2.2319487710        1.9287100793
 H          2.4246433599       -1.6795879504        2.5530208397
 H          5.1878047089       -2.9221896217        0.6459116090
 H          5.9524825583       -3.2423205923       -0.8945961911
 H          4.7303161785       -1.4036052421       -1.9641883511
 H          5.7967798391       -0.8908731722       -0.6719520516
 O          3.6771411694        0.5512586584       -1.0865072112
 C          2.7800018398        1.5775403287       -0.8348568212
 O          2.8240594299        2.4910908685       -1.6808367214
 O          1.2529748304        0.1814298799        2.1250828696
 C          0.9557143706        2.5432606996        0.6611850692
 C         -0.3181101897        2.3019457999       -0.1124662403
 C         -0.4024230601        2.5526046496       -1.4778550703
 C         -1.5718256804        2.2825945998       -2.1655970299
 C         -2.6767410503        1.7631180703       -1.5127597094
 C         -2.5977754500        1.4964054606       -0.1518684194
 C         -1.4224787997        1.7689835704        0.5370866002
 H         -1.3574858494        1.5483379306        1.5939369302
 N         -3.7154683599        0.9858147111        0.5343547811
 S         -4.4979418305       -0.3902888388        0.0001348916
 O         -4.9742979009       -0.1748530589       -1.3421635783
 O         -5.5008609003       -0.6644825782        1.0025797620
 C         -3.2745782009       -1.6886883992        0.0093283015
 C         -2.3461490713       -1.7491783497       -1.0111237888
 C         -1.3923000516       -2.7540617700       -0.9867586889
 C         -1.3854582015       -3.6773735198        0.0476324813
 C         -2.3192716212       -3.5977003892        1.0690184816
 C         -3.2709386509       -2.5911664689        1.0542036917
 H         -4.0204210006       -2.4958008585        1.8233350219
 H         -2.3076224412       -4.3148715491        1.8739604818
 H         -0.6492764818       -4.4657827100        0.0561788813
 H         -0.6579777619       -2.8127257504       -1.7743929791
 H         -2.3855388413       -1.0221641099       -1.8061106989
 H         -3.5787410496        0.9275726813        1.5334467910
 H         -3.5913931906        1.5473462705       -2.0408010391
 H         -1.6266548106        2.4820491296       -3.2253956599
 H          0.4616443499        2.9379501192       -1.9968082507
 H          0.7345424409        2.3758599899        1.7240084893
 C          1.4628717610        3.9605259694        0.4982272587
 C          0.7474251916        5.0673414498        1.2113183987
 C          2.1120926516        4.6434388195        1.6628475084
 H          2.9476817018        5.3002169592        1.4731718780
 H          2.1945154517        4.0898414497        2.5869644085
 H          0.6424620317        6.0180026097        0.7117222986
 H         -0.0968751483        4.8007382702        1.8292689391
 H          1.8651630908        4.1713173091       -0.4831786514
