  62
        -98.93870575
 C         -1.9666748404       -0.8489368298       -0.4526025828
 C         -3.0378753609       -1.1621552978        0.4178981912
 C         -4.3312475076       -0.5005245276        0.1612062258
 C         -4.4204819657        0.3644768975       -0.8662177430
 C         -5.6082853914        1.1846464956       -1.2942793554
 C         -5.8566545688        2.3927684054       -0.3769152222
 C         -5.7513446578        2.0980628890        1.1170841405
 H         -5.8400366577        3.0488425703        1.6494225831
 H         -4.7591109746        1.6981395723        1.3342289133
 C         -6.8143089265        1.1520085409        1.6706712190
 H         -7.8035061738        1.5751189869        1.4819919604
 H         -6.6744218708        1.1063162391        2.7537482311
 C         -6.7853620432       -0.2784866608        1.1281598547
 H         -7.2254935979       -0.3313378525        0.1360085095
 H         -7.4189161105       -0.8862415100        1.7808269117
 C         -5.4069064630       -0.9315957178        1.1290174428
 H         -5.5319821155       -2.0091978331        0.9678260673
 H         -4.9677885385       -0.8401116315        2.1289273766
 H         -6.8442206098        2.7991773196       -0.6018310209
 H         -5.1142308733        3.1577291508       -0.6177759021
 H         -6.4924281535        0.5571389933       -1.3562815867
 H         -5.3897919791        1.5515499756       -2.2996722816
 O         -3.3577411841        0.6460582894       -1.6722375542
 C         -2.1164045938        0.0619061803       -1.4972922860
 O         -1.2618932357        0.4269860519       -2.3280471924
 O         -2.9237878417       -1.9673148380        1.3808039868
 C         -0.6241025310       -1.5139468267       -0.1991151834
 C          0.3414454126       -0.4773685873        0.3185028727
 C          0.3491795352       -0.1655712518        1.6749550659
 C          1.2071319385        0.7963690097        2.1753194024
 C          2.0757758582        1.4677982043        1.3328608312
 C          2.0692082769        1.1686070096       -0.0228766393
 C          1.2147217787        0.1953760562       -0.5224890226
 H          1.2088320814       -0.0149444577       -1.5801885077
 N          2.9649177793        1.8384038328       -0.8788060824
 S          4.5811290640        1.7630677455       -0.4439974497
 O          4.8586170536        2.7633355382        0.5564960700
 O          5.3235011366        1.8830900559       -1.6791736815
 C          4.7735326031        0.1339191119        0.2586898859
 C          5.0313814662       -0.0104652999        1.6063370131
 C          5.1045678833       -1.2867969614        2.1411772351
 C          4.9134219458       -2.3899246126        1.3242011542
 C          4.6584796282       -2.2283923711       -0.0291422504
 C          4.5849898661       -0.9551882054       -0.5691584899
 H          4.3922473711       -0.7940806331       -1.6177040823
 H          4.5104038797       -3.0883712343       -0.6624273692
 H          4.9632446930       -3.3826399508        1.7430633313
 H          5.3040408432       -1.4159722228        3.1927257489
 H          5.1692466546        0.8742030543        2.2060471526
 H          2.8402814053        1.6009892626       -1.8522694817
 H          2.7544855828        2.2203829736        1.7007751961
 H          1.2021875082        1.0252948855        3.2300478755
 H         -0.3345850361       -0.6845413532        2.3318633799
 H         -0.8095713437       -2.2351802820        0.6080075041
 C         -0.1103551828       -2.2603139522       -1.4132328741
 C          1.0620711975       -3.1814874479       -1.2586678975
 C         -0.3058859180       -3.7427639257       -1.5017043354
 H         -0.5232907570       -4.1759390568       -2.4666492275
 H         -0.8126286888       -4.2297928761       -0.6816461529
 H          1.7857849800       -3.2313738514       -2.0577171443
 H          1.4859003896       -3.2822455429       -0.2710832335
 H         -0.1940315654       -1.6956582765       -2.3337482752
