  62
        -98.93889621
 C         -1.9525778199       -1.3028499295        0.0533921501
 C         -2.5370610696       -0.5318804799        1.0844999605
 C         -3.8209353896        0.1216595803        0.7790342011
 C         -4.3459162999       -0.0018683592       -0.4546919788
 C         -5.6497835400        0.5014840412       -1.0379935383
 C         -6.4667109398        1.5724741909       -0.3200871577
 C         -5.8060798896        2.9494059109       -0.2643228973
 H         -5.7857659399        3.3665523113       -1.2743267772
 H         -6.4275535894        3.6023662307        0.3523532231
 C         -4.3766269895        2.9729911906        0.2712812323
 H         -4.0292523094        4.0097470905        0.2514205026
 H         -3.7250630397        2.4048623008       -0.3963386981
 C         -4.2041256292        2.4525542400        1.6970476021
 H         -4.8788191990        2.9883200298        2.3676220324
 H         -3.1794315991        2.6765640198        2.0065199019
 C         -4.4246544092        0.9410774900        1.8833737915
 H         -3.9169079590        0.6380188096        2.8037334113
 H         -5.4800437692        0.7075454500        2.0014682617
 H         -7.4005605599        1.6776397012       -0.8789717574
 H         -6.7339813295        1.2374132806        0.6777695422
 H         -5.4084406602        0.8512794115       -2.0467791782
 H         -6.2791979801       -0.3866306288       -1.1632178485
 O         -3.7192313702       -0.7172121488       -1.4333840293
 C         -2.5175513802       -1.3734873390       -1.2188590998
 O         -2.0755968805       -1.9664152687       -2.2197014702
 O         -2.0113060493       -0.3991305004        2.2236445204
 C         -0.6426083299       -2.0203386597        0.3321755595
 C          0.4611318300       -1.3491654495       -0.4472897406
 C          1.1738721097       -1.9643710892       -1.4667626010
 C          2.1548283096       -1.2680165890       -2.1532535110
 C          2.4553976297        0.0416044108       -1.8294198106
 C          1.7598220201        0.6603936505       -0.7970842701
 C          0.7730454802       -0.0348436797       -0.1168157402
 H          0.2248926904        0.4484672601        0.6822090302
 N          2.0873860002        1.9797334803       -0.4372607897
 S          3.7154903903        2.3293907901       -0.2474729400
 O          3.7667936807        3.3896186198        0.7348986204
 O          4.2965378100        2.6354745506       -1.5310307900
 C          4.4400401004        0.8323346598        0.4002973392
 C          3.9715474806        0.3518644394        1.6072052292
 C          4.4892425107       -0.8334255908        2.1030198086
 C          5.4616637304       -1.5150321206        1.3871128381
 C          5.9272639902       -1.0154862902        0.1810436382
 C          5.4112530001        0.1685658100       -0.3209596613
 H          5.7407459499        0.5898368504       -1.2566982012
 H          6.6853517000       -1.5461926000       -0.3719056122
 H          5.8582096605       -2.4406023308        1.7735515076
 H          4.1285586809       -1.2223313611        3.0418154485
 H          3.2169763108        0.9063529293        2.1422018596
 H          1.5450355405        2.3376591501        0.3352215806
 H          3.2104311297        0.5985993710       -2.3602769605
 H          2.6926714693       -1.7534927088       -2.9530103113
 H          0.9517366895       -2.9833865891       -1.7352578013
 H         -0.4466208296       -1.8540017002        1.4011566595
 C         -0.7579587600       -3.5081965696        0.0848002489
 C          0.2262490101       -4.4412581300        0.7225988083
 C         -1.1908400298       -4.4007545600        1.2076854987
 H         -1.8395620299       -5.2337093899        0.9817302185
 H         -1.3933330495       -3.9387170404        2.1629827189
 H          0.5527640799       -5.3059922198        0.1655914679
 H          0.9894451903       -4.0063100903        1.3497229783
 H         -1.1217782903       -3.7460629492       -0.9075675911
