  62
        -98.94085160
 C         -2.3047965302       -0.8443974150       -0.1501436472
 C         -3.5991716440       -1.2153718222        0.2864005206
 C         -4.7145840769       -0.4543709878       -0.2909641685
 C         -4.4539552475        0.5149627981       -1.1873228696
 C         -5.4891624827        1.4046014074       -1.8114313038
 C         -5.6909141503        2.6837988990       -0.9869204007
 C         -5.8977543668        2.4298432005        0.5063208775
 H         -4.9786191318        2.0152209617        0.9268060878
 H         -6.0589303759        3.3997961071        0.9817152971
 C         -7.0720438294        1.4974195723        0.8352283737
 H         -7.6409919123        1.9293296982        1.6611893748
 H         -7.7436093024        1.4316823597       -0.0214343063
 C         -6.6616511862        0.0881356312        1.2662319250
 H         -7.5421205127       -0.4110399684        1.6792630234
 H         -5.9172641166        0.1509838689        2.0639843547
 C         -6.1037413439       -0.8129727299        0.1572820682
 H         -6.0358363644       -1.8288340855        0.5572141563
 H         -6.7915695172       -0.8225891390       -0.6904384767
 H         -4.8075959513        3.3153402666       -1.1075268572
 H         -6.5511911607        3.2217029744       -1.3893275460
 H         -5.1492381103        1.6773196831       -2.8118941696
 H         -6.4277089180        0.8598424127       -1.8925526610
 O         -3.1976378065        0.8315907434       -1.5952347606
 C         -2.0909641562        0.1709934471       -1.0816979941
 O         -0.9994800147        0.5738190483       -1.5291932478
 H          1.6130622229       -1.2138660509        0.0166991161
 C          1.1922786988       -0.5446370955        0.7466433146
 C         -0.1562210973       -0.6004782739        1.0603432801
 C         -0.6575638254        0.2804024154        2.0159517026
 C          0.1654856772        1.2095096656        2.6203434820
 C          1.5052658406        1.2824647991        2.2812372835
 C          2.0204181712        0.3982154156        1.3414804711
 N          3.3936375315        0.4239032231        1.0279500315
 S          3.9173382169        0.2931706748       -0.5719042169
 O          3.4530845284        1.4219808118       -1.3490604721
 O          3.5984869259       -1.0166965975       -1.0772156352
 C          5.6776821195        0.4167842497       -0.3090787162
 C          6.3391453981       -0.6814497822        0.2071251092
 C          7.7023635702       -0.5946661530        0.4391838901
 C          8.3782141667        0.5825813035        0.1534934945
 C          7.7014698532        1.6758138129       -0.3654627584
 C          6.3372349855        1.5956900224       -0.5987446790
 H          5.7709047888        2.4167722704       -1.0083143360
 H          8.2298583426        2.5884563498       -0.5896166299
 H          9.4395653175        0.6474086948        0.3341441023
 H          8.2324317499       -1.4433021846        0.8405682667
 H          5.7737925616       -1.5769310965        0.4052517263
 H          3.8562384180        1.2169797626        1.4545773335
 H          2.1469124265        2.0178775004        2.7431920874
 H         -0.2389206609        1.8902506384        3.3545631898
 H         -1.7079046583        0.2304699915        2.2704293445
 C         -1.1021401004       -1.5803038085        0.4120027179
 H         -1.5032473115       -2.2432690095        1.1934503295
 C         -0.4551524492       -2.4311234445       -0.6598786060
 C          0.2998355838       -3.6700967865       -0.2849417220
 C         -1.0303326116       -3.7801964372       -0.9659211451
 H         -1.0604085800       -4.1056234956       -1.9949857406
 H         -1.8807403010       -4.0989679096       -0.3809416293
 H          1.1896004565       -3.9156452137       -0.8450870032
 H          0.3544670854       -3.9217982667        0.7633817602
 H         -0.0869311874       -1.8433126561       -1.4946606978
 O         -3.8098723540       -2.1342288071        1.1229647252
