  62
        -98.93052456
 C         -1.7302359246       -0.9985584988        0.1324881074
 C         -3.0452883330       -1.1193919013        0.6404416874
 C         -3.9160888439        0.0683110111        0.5532722626
 C         -3.4143311606        1.1966303850        0.0176609093
 C         -4.1115383864        2.5112758326       -0.2118061677
 C         -5.0654010474        2.4733541721       -1.4164371486
 C         -5.9464955740        1.2297625720       -1.4994784026
 H         -6.4954563933        1.2745234766       -2.4439059059
 H         -5.3116943364        0.3425084469       -1.5369547677
 C         -6.9663866043        1.0780411886       -0.3733326517
 H         -7.5843175831        0.2083223058       -0.6112269998
 H         -7.6186836189        1.9540778877       -0.3602825990
 C         -6.3895677978        0.8796363257        1.0301649572
 H         -7.2069110320        0.5379074562        1.6719358768
 H         -6.0417793001        1.8200792955        1.4489763128
 C         -5.2923879542       -0.1759902926        1.1239768631
 H         -5.1327748418       -0.4200432714        2.1812177883
 H         -5.6491635591       -1.1059860701        0.6666365760
 H         -5.6930279864        3.3656930185       -1.3877227859
 H         -4.4619368412        2.5142261118       -2.3266084140
 H         -4.6365048734        2.8184382362        0.6877781726
 H         -3.3311719673        3.2489315196       -0.4110576835
 O         -2.1353370384        1.2720839301       -0.4465978818
 C         -1.2657221258        0.1948518820       -0.4164205865
 O         -0.1416112882        0.4397609371       -0.8882391722
 H          1.7908442361       -1.6686755200       -0.8003757867
 C          1.6834402699       -1.6438019071        0.2675504192
 C          0.4650884502       -1.8772309577        0.8866652094
 C          0.4072530525       -1.7634602442        2.2775096486
 C          1.5236151259       -1.4384910679        3.0209324153
 C          2.7401692410       -1.2269521497        2.3960433059
 C          2.8152525267       -1.3331066148        1.0138000859
 N          4.0516669653       -1.1809070297        0.3597850861
 S          4.2621709916       -0.1277074596       -0.9230663114
 O          3.3593690051       -0.4588565971       -1.9926999854
 O          5.6744907656       -0.2200686230       -1.2282435074
 C          3.9213136342        1.4851619284       -0.2419894229
 C          4.9888703913        2.2521116353        0.1850602705
 C          4.7410316068        3.4806002032        0.7744743793
 C          3.4337603148        3.9152480049        0.9348148588
 C          2.3751882852        3.1306189392        0.5045492280
 C          2.6139706951        1.9001841204       -0.0901883484
 H          1.8041897001        1.2773668883       -0.4375519291
 H          1.3562134305        3.4634372691        0.6257139930
 H          3.2376377426        4.8706240710        1.3958154702
 H          5.5635984215        4.0929566230        1.1073267954
 H          5.9875967252        1.8750694978        0.0342964410
 H          4.8335525250       -1.0845996330        0.9926309157
 H          3.6218278705       -0.9875260696        2.9711267297
 H          1.4493552861       -1.3545790659        4.0945328981
 H         -0.5398426977       -1.9335592070        2.7715480858
 C         -0.8302605768       -2.2257157611        0.1981804958
 H         -1.3654490348       -2.9059076675        0.8815218261
 C         -0.8354393133       -2.9437213620       -1.1444055148
 C         -0.1091824661       -2.5204222380       -2.3839722010
 C          0.2841263972       -3.7847397292       -1.6775547293
 H          0.0332423320       -4.7258963033       -2.1445005416
 H          1.2163269720       -3.8013417719       -1.1357164783
 H          0.5393133531       -1.6595873088       -2.3480813664
 H         -0.6383796485       -2.6070841052       -3.3231704208
 H         -1.8352813700       -3.3355409135       -1.3228111770
 O         -3.4858650001       -2.1859353113        1.1500314171
