  62
        -98.93228098
 C         -1.7781659313       -0.0383972115        0.1860034131
 C         -2.8738593144       -0.9334442338        0.2324083546
 C         -4.1476219354       -0.4349240800       -0.3289692196
 C         -4.1970611046        0.7940553155       -0.8682949061
 C         -5.3941295754        1.4952873317       -1.4485055589
 C         -6.0799474046        2.3706970414       -0.3860528326
 C         -7.1214683513        1.6491867016        0.4684672030
 H         -7.4284056135        2.3388391141        1.2582105007
 H         -8.0021982990        1.4379449943       -0.1417125033
 C         -6.6489362697        0.3431471212        1.1125065349
 H         -5.6414361095        0.4730064413        1.5119198932
 H         -7.3062729946        0.1296832702        1.9577466286
 C         -6.6785670022       -0.8509522172        0.1469432128
 H         -7.2451926073       -0.5751922011       -0.7423233903
 H         -7.2180075542       -1.6783760687        0.6127136019
 C         -5.3032334338       -1.3965250041       -0.2655052084
 H         -4.9861523163       -2.1622111034        0.4497188766
 H         -5.3945197121       -1.8966982310       -1.2355875460
 H         -5.3008481056        2.7883482790        0.2568112387
 H         -6.5735364793        3.2066168442       -0.8858934719
 H         -5.0190260724        2.1433507736       -2.2433389855
 H         -6.0895715791        0.7804259035       -1.8781078889
 O         -3.1130540005        1.6173881149       -0.9093058124
 C         -1.8951208757        1.2313043291       -0.3861636348
 O         -0.9996203490        2.0947535933       -0.4816767255
 O         -2.8199826115       -2.0940195533        0.7132333179
 C         -0.3997594163       -0.3724928150        0.7300833499
 C          0.4564456310       -1.0724800741       -0.2936284486
 C         -0.0365688272       -2.1090691043       -1.0789830902
 C          0.7847987556       -2.7457482479       -1.9915813093
 C          2.1141764257       -2.3827515450       -2.1186463757
 C          2.6174416654       -1.3508060467       -1.3360554267
 C          1.7809534371       -0.6906583557       -0.4472069958
 H          2.1708374383        0.1284073026        0.1371485171
 N          3.9594819235       -0.9566157771       -1.4289207710
 S          4.7994907699       -0.5908574305       -0.0252014932
 O          6.1882044624       -0.8186503519       -0.3616126711
 O          4.2850630354       -1.3304442237        1.1027045386
 C          4.5401702888        1.1542396084        0.2048724932
 C          4.0437565561        1.6218594028        1.4052560240
 C          3.8623416652        2.9859806298        1.5697071948
 C          4.1809231369        3.8534950048        0.5365689035
 C          4.6822451521        3.3680016774       -0.6618644861
 C          4.8658553203        2.0055453914       -0.8323287911
 H          5.2559413381        1.5907625315       -1.7467582394
 H          4.9277370989        4.0471863028       -1.4623204815
 H          4.0359283944        4.9143235127        0.6668197075
 H          3.4703745658        3.3647200797        2.5000772529
 H          3.8029673876        0.9124846147        2.1818815796
 H          4.5181289789       -1.4974143973       -2.0729739192
 H          2.7579885435       -2.8938659130       -2.8184162034
 H          0.3896887609       -3.5460154862       -2.5992593875
 H         -1.0635544974       -2.4186046431       -0.9596525873
 H          0.0712814850        0.6028988625        0.9332628531
 C         -0.4414831392       -1.1288672754        2.0516976646
 C         -0.1323299354       -2.5861022389        2.1841119386
 C          0.8299429468       -1.5695017857        2.7165380280
 H          0.9166062860       -1.4524086560        3.7866500966
 H          1.7609681588       -1.4355571363        2.1838182409
 H         -0.7246747732       -3.1630408178        2.8777490776
 H          0.1433069150       -3.1308178185        1.2949072947
 H         -1.2190463233       -0.7457773427        2.7056606549
