  62
        -98.94105451
 C         -2.0098068707       -0.3722390918        0.0712351438
 C         -3.1060080470       -1.0909650963        0.6167516693
 C         -4.3318060443       -0.3226183628        0.8681236002
 C         -4.3350292411        1.0014085482        0.6316762502
 C         -5.5254943860        1.9000435336        0.7967728952
 C         -6.3287439344        2.0026417823       -0.5074477970
 C         -6.6441951543        0.6503742005       -1.1470138966
 H         -7.2383082782        0.8450081966       -2.0425693661
 H         -5.7118140618        0.1855850070       -1.4758557783
 C         -7.4008543014       -0.3234542138       -0.2327885200
 H         -8.2110999654       -0.7815780189       -0.8038936350
 H         -7.8564078830        0.2230024886        0.5937997971
 C         -6.5475119927       -1.4647009114        0.3239459695
 H         -6.0166726777       -1.9577357551       -0.4945522504
 H         -7.2181310962       -2.2039727400        0.7699298989
 C         -5.5236328742       -1.0704993564        1.3959784895
 H         -6.0183704170       -0.5000558326        2.1847179411
 H         -5.1289716958       -1.9919738824        1.8340089840
 H         -7.2588889578        2.5344543866       -0.2989869186
 H         -5.7527146732        2.5940113191       -1.2231405696
 H         -6.1568226506        1.5153078541        1.5954536441
 H         -5.1699600773        2.8940391853        1.0736701853
 O         -3.2505613050        1.6683025570        0.1662243985
 C         -2.0649708509        1.0069878107       -0.1392447432
 O         -1.1761820650        1.7603985694       -0.5760957701
 H          1.1777614195        0.3955593174       -1.4058412822
 C          1.3359372687        0.2834572877       -0.3446955364
 C          0.4481905008       -0.4709495052        0.4062817221
 C          0.6579062092       -0.5776046854        1.7777773646
 C          1.7224876926        0.0638081411        2.3830008309
 C          2.5975264249        0.8292418225        1.6330697199
 C          2.3945406046        0.9443352747        0.2642365471
 N          3.2767243038        1.7263221617       -0.5000964451
 S          4.9180395508        1.5033775954       -0.2822097290
 O          5.3519404373        2.1861940543        0.9111883819
 O          5.5305734058        1.9385104852       -1.5176438180
 C          5.1080113393       -0.2584429121       -0.0748753667
 C          4.8144465261       -1.0711276241       -1.1522067025
 C          4.9017558522       -2.4449642729       -0.9994862494
 C          5.2746896680       -2.9806195495        0.2240661049
 C          5.5691775723       -2.1514991263        1.2948832226
 C          5.4841400979       -0.7760535920        1.1474316017
 H          5.7054583862       -0.0961270252        1.9536514882
 H          5.8609342848       -2.5708975628        2.2442011155
 H          5.3372121640       -4.0509420683        0.3418209641
 H          4.6757789233       -3.0924101465       -1.8315577213
 H          4.5344585463       -0.6196682734       -2.0904816285
 H          3.0308978102        1.7873670537       -1.4765646291
 H          3.4227137687        1.3527075647        2.0881553658
 H          1.8702161893       -0.0266896526        3.4484371527
 H         -0.0330644118       -1.1642372542        2.3673619810
 C         -0.7410775656       -1.1593035256       -0.2110899543
 H         -0.8945724819       -2.1124561979        0.3203849957
 C         -0.5284019560       -1.5141729267       -1.6754549793
 C         -1.6938085336       -1.8696734435       -2.5481714186
 C         -0.9210356431       -0.6125195186       -2.8057168887
 H         -0.2806477351       -0.5768199428       -3.6754870595
 H         -1.3778669204        0.3344156944       -2.5644425853
 H         -2.6807055213       -1.7818232336       -2.1174508015
 H         -1.5909358199       -2.6915117193       -3.2404885118
 H          0.3752597102       -2.0997292103       -1.8160344374
 O         -3.0597091012       -2.3215624891        0.8821356461
