  62
        -98.94948795
 C         -1.0664907426       -1.7294056544        0.1148134407
 C         -1.6946090641       -0.9479630128        1.1132228185
 C         -2.8411899141       -0.1447328081        0.6748323319
 C         -3.2208635605       -0.1751037781       -0.6155810065
 C         -4.3709971532        0.5859606580       -1.2169320574
 C         -4.0306320012        2.0384546216       -1.5784894018
 C         -3.9224755728        2.9966514280       -0.3915205645
 H         -4.8057654860        2.8950035255        0.2406317359
 H         -3.9256764824        4.0097567239       -0.7987127355
 C         -2.6544353978        2.8141663969        0.4539121518
 H         -2.2205067506        3.7936128578        0.6720073975
 H         -1.9076275757        2.2685718572       -0.1291908089
 C         -2.8808307385        2.1125932277        1.7934671200
 H         -3.5143830834        2.7383179508        2.4266657277
 H         -1.9140173282        2.0049172968        2.2910406013
 C         -3.5242953994        0.7239207011        1.6888026479
 H         -4.5828491784        0.8204456939        1.4474874774
 H         -3.4304525337        0.2314515326        2.6602076362
 H         -4.8181257011        2.4027789238       -2.2427334589
 H         -3.0906144879        2.0502061521       -2.1366246477
 H         -5.2224242685        0.5683379736       -0.5353577437
 H         -4.6468141643        0.0581825842       -2.1325215595
 O         -2.5968650285       -0.9451943937       -1.5455707498
 C         -1.4994384345       -1.7270243912       -1.2119670142
 O         -1.0167327682       -2.3659864349       -2.1665721430
 O         -1.3157636446       -0.9234407551        2.3158347137
 C          0.1476622065       -2.5541519238        0.4898480128
 C          1.3898328067       -2.0991718913       -0.2414751043
 C          2.5022174715       -2.9217985697       -0.3888775465
 C          3.6357921438       -2.4586267891       -1.0329600355
 C          3.6970917873       -1.1686990704       -1.5302614561
 C          2.5912830299       -0.3389696301       -1.3889745885
 C          1.4570865521       -0.8104043211       -0.7470089737
 H          0.5976726073       -0.1646406977       -0.6765206296
 N          2.5942963878        0.9696255037       -1.8890407340
 S          1.6855054479        2.1693617285       -1.1680482338
 O          0.2812790478        1.9729133816       -1.4275467771
 O          2.2563680275        3.3961328507       -1.6823645986
 C          2.0411931098        2.0267316358        0.5733346053
 C          3.3119913624        2.3637705486        0.9989020793
 C          3.6345008502        2.2102001841        2.3369502941
 C          2.6896635246        1.7137810313        3.2232069935
 C          1.4176765737        1.3849566140        2.7825965042
 C          1.0884965364        1.5460354026        1.4462897252
 H          0.1059215383        1.2952168316        1.0798819484
 H          0.6761801552        0.9858524923        3.4571188918
 H          2.9437117926        1.5838265064        4.2633220791
 H          4.6211258257        2.4710656112        2.6844475333
 H          4.0165620333        2.7521495542        0.2816222764
 H          3.4808781070        1.3054548073       -2.2329011092
 H          4.5821341744       -0.8107036955       -2.0330059359
 H          4.4886595214       -3.1103833830       -1.1459854777
 H          2.4757017353       -3.9285978365       -0.0047337385
 H          0.3049451291       -2.3669058355        1.5638412869
 C         -0.1263326005       -4.0334686957        0.2928865004
 C          0.4092321020       -5.0479092912        1.2576548353
 C         -1.0544178822       -4.7291887869        1.2421698312
 H         -1.7432906138       -5.4606303930        0.8472618767
 H         -1.4591168726       -4.1433887391        2.0547357582
 H          0.7272211256       -6.0054658335        0.8734121381
 H          0.9904470651       -4.6892696884        2.0938250948
 H         -0.1893375582       -4.3055218871       -0.7546969697
