  62
        -98.94059190
 C          2.3404513273       -0.1661452558       -0.2842954446
 C          3.5138138387       -0.5252025478       -0.9897828530
 C          4.7250636295        0.2234743691       -0.6375802645
 C          4.6599179702        1.2009536464        0.2849267383
 C          5.8028553556        2.0706448556        0.7339259892
 C          6.6773689870        1.4369497432        1.8245549088
 C          7.5829864053        0.2986625902        1.3526957010
 H          8.1605614301        0.6295641774        0.4890535583
 H          8.2899817349        0.0968276861        2.1598134467
 C          6.8411970544       -1.0011766493        1.0110682912
 H          5.8407877407       -0.9763416467        1.4494455389
 H          7.3652752356       -1.8483176016        1.4593354132
 C          6.7175197344       -1.2866050804       -0.4856826628
 H          7.7103809912       -1.4465283280       -0.9118514978
 H          6.1440851655       -2.2085161542       -0.6118182117
 C          6.0159991890       -0.1799302794       -1.2839693260
 H          6.6742043741        0.6818559354       -1.3913277652
 H          5.7821984054       -0.5695030047       -2.2778030880
 H          7.3085764076        2.2279019501        2.2361139766
 H          6.0285917439        1.0781692757        2.6269168495
 H          5.3581348695        2.9833066965        1.1362087699
 H          6.4223909315        2.3339881028       -0.1237070919
 O          3.5050790505        1.5337730928        0.9215499778
 C          2.3236482828        0.8508727224        0.6699414109
 O          1.3522886885        1.2428406827        1.3441985260
 O          3.5446882787       -1.4210921994       -1.8758904572
 C          1.0527892285       -0.9142424615       -0.5745856562
 C         -0.0235745830        0.0437537061       -1.0205571393
 C          0.2553392955        0.9311612554       -2.0578424195
 C         -0.7016564130        1.8216845468       -2.5023655469
 C         -1.9633184388        1.8379365081       -1.9333291377
 C         -2.2522409956        0.9572924933       -0.8985289847
 C         -1.2855417652        0.0667978063       -0.4502603409
 H         -1.5396426347       -0.6041551486        0.3528151983
 N         -3.5136385263        0.9671852660       -0.2825954877
 S         -4.1590309998       -0.4889890889        0.2733268654
 O         -3.6241892100       -0.7761087635        1.5803784169
 O         -3.9911367548       -1.5191975653       -0.7269707936
 C         -5.8799023412       -0.0416665215        0.4150350020
 C         -6.2994879510        0.6322986115        1.5465043487
 C         -7.6300118356        1.0059798638        1.6487035559
 C         -8.5139298456        0.7019282544        0.6238692136
 C         -8.0787487417        0.0237133449       -0.5047287054
 C         -6.7490465514       -0.3520230284       -0.6138983032
 H         -6.3679350848       -0.8888412989       -1.4677141423
 H         -8.7690550573       -0.2144884923       -1.2978154257
 H         -9.5491964627        0.9926842129        0.7070951666
 H         -7.9724362376        1.5309269204        2.5258686484
 H         -5.5784135304        0.8385545503        2.3203738444
 H         -4.1970375045        1.5139251130       -0.7881298284
 H         -2.7128294952        2.5323454987       -2.2814033781
 H         -0.4677339972        2.5052351552       -3.3048292282
 H          1.2389803966        0.9132023869       -2.5077647840
 H          1.2851856313       -1.5811873892       -1.4190409139
 C          0.6545017259       -1.7618494985        0.6149244611
 C         -0.1784789950       -2.9919638724        0.4187899740
 C          1.2686574362       -3.1173968415        0.7870473804
 H          1.5214673206       -3.4465301101        1.7837780638
 H          1.9624846543       -3.4468403766        0.0273790511
 H         -0.9275090820       -3.2286156541        1.1601146132
 H         -0.4734195967       -3.2395305460       -0.5900387645
 H          0.4857492856       -1.1717358218        1.5097261933
