  62
        -98.94014351
 C         -2.6357094790       -1.3195014200       -0.0152022047
 C         -2.5313821246       -0.1749774646       -0.8412320389
 C         -3.7795438220        0.5708844603       -1.0588516001
 C         -4.9187925777        0.1316091140       -0.4930959874
 C         -6.2481002459        0.8211661157       -0.5925846547
 C         -6.4505906293        1.8075380777        0.5661172198
 C         -5.2659405570        2.7472085953        0.7912576330
 H         -5.5318257515        3.4151756350        1.6134216117
 H         -4.4025432825        2.1633738710        1.1191315142
 C         -4.8742960085        3.5800920213       -0.4372987029
 H         -4.7031354016        4.6112332938       -0.1211306927
 H         -5.6964107453        3.5928413164       -1.1538244199
 C         -3.5979699560        3.1135550818       -1.1403230859
 H         -3.2968236540        3.8898594328       -1.8490055201
 H         -2.7911886494        3.0103964837       -0.4094291600
 C         -3.7093829580        1.7986571067       -1.9223762985
 H         -4.5643882724        1.8446630905       -2.6000214435
 H         -2.7999751496        1.6918646263       -2.5211871957
 H         -7.3492798449        2.3941539283        0.3673110429
 H         -6.6130415837        1.2363392293        1.4829963072
 H         -7.0319851866        0.0629899846       -0.5535223486
 H         -6.3092611529        1.3448779827       -1.5444728293
 O         -4.9804050026       -0.9800096734        0.2837028707
 C         -3.8437660417       -1.7243568828        0.5522937187
 O         -4.0343173589       -2.7071563189        1.2967299516
 O         -1.4547166833        0.2030600692       -1.3745510196
 C         -1.4026240942       -2.1552565298        0.2789939843
 C         -0.3472278190       -1.2933971027        0.9289001760
 C         -0.6900935604       -0.5613591363        2.0629390433
 C          0.2372150544        0.2501622021        2.6863598008
 C          1.5299096419        0.3475321731        2.1999306941
 C          1.8829131466       -0.3762389487        1.0700515774
 C          0.9470570580       -1.1949834682        0.4465129331
 H          1.2355877007       -1.7498539203       -0.4327250876
 N          3.2030168772       -0.3228569150        0.5760252380
 S          3.9378936980        1.1764837014        0.3212039514
 O          4.0776497757        1.8503039141        1.5865783258
 O          3.2497629458        1.9107654620       -0.7187863010
 C          5.5360911436        0.6397703254       -0.2568754635
 C          5.7757302912        0.5542023650       -1.6149439852
 C          7.0137085116        0.1079156986       -2.0504313414
 C          7.9844127766       -0.2455594929       -1.1253639934
 C          7.7291728294       -0.1532199446        0.2348241810
 C          6.4936913157        0.2923355539        0.6765799217
 H          6.2528537180        0.3877159090        1.7222804968
 H          8.4876498623       -0.4263161497        0.9506322942
 H          8.9467921973       -0.5923850631       -1.4672700118
 H          7.2158420740        0.0380109767       -3.1072045662
 H          4.9960637016        0.8496880483       -2.2989904880
 H          3.2957949528       -0.8705460000       -0.2703303517
 H          2.2560683040        0.9879498073        2.6721932672
 H         -0.0457129496        0.8148794424        3.5624818229
 H         -1.7003856935       -0.6336704813        2.4440654936
 H         -1.7170700504       -2.9148207237        1.0093465246
 C         -0.9385058497       -2.8547043191       -0.9814069224
 C         -0.1751738955       -4.1411971881       -0.8932122370
 C         -1.5942952624       -4.1429307719       -1.3745281085
 H         -1.7858361598       -4.3251083869       -2.4213686067
 H         -2.3604853817       -4.5283651940       -0.7176509294
 H          0.6075641670       -4.3281618548       -1.6129779856
 H          0.0260224815       -4.5356119802        0.0912410350
 H         -0.6884631541       -2.1600012142       -1.7754273179
