  62
        -98.94787304
 C         -1.1016979803       -1.1782451589        0.4891312793
 C         -1.4958291693       -0.4738096790       -0.6737476911
 C         -2.2947119189        0.7369513914       -0.4399174519
 C         -2.5031918295        1.1686195618        0.8168955679
 C         -3.2696520391        2.4015501723        1.2131757671
 C         -4.7858644493        2.1818597830        1.3108337963
 C         -5.5063709186        2.0138342330       -0.0278201241
 H         -6.5768200986        2.0835674136        0.1752912053
 H         -5.2459826178        2.8432951727       -0.6859175842
 C         -5.2246223788        0.6815625327       -0.7370767236
 H         -4.7999393595       -0.0282614173       -0.0232524531
 H         -6.1645361988        0.2527505830       -1.0917759440
 C         -4.2917740380        0.7898599719       -1.9436736231
 H         -4.7694631173        1.3882608720       -2.7223843935
 H         -4.1299110882       -0.2147349382       -2.3421497527
 C         -2.9207490279        1.4031894814       -1.6285913324
 H         -3.0250135875        2.4753293215       -1.4623683328
 H         -2.2640982775        1.2372922009       -2.4858461020
 H         -5.2087795092        3.0503943334        1.8210087458
 H         -4.9715034400        1.3064069833        1.9376468364
 H         -2.8992320196        2.6958813024        2.1976934873
 H         -3.0639738383        3.2091647120        0.5099046470
 O         -2.0081838904        0.5199566819        1.9066509684
 C         -1.3482697009       -0.6925068484        1.7731196291
 O         -1.0307951218       -1.2265907783        2.8560611994
 O         -1.2136908188       -0.8373746095       -1.8435255508
 C         -0.3826363709       -2.5099441693        0.3651216401
 C          0.9495253996       -2.3172650901       -0.3178616892
 C          1.3155799800       -2.9670814605       -1.4887173688
 C          2.5604930404       -2.7433775913       -2.0508694081
 C          3.4611850205       -1.8786733715       -1.4582628678
 C          3.1093793601       -1.2319516211       -0.2775641682
 C          1.8596506496       -1.4519366603        0.2789375812
 H          1.5942930693       -0.9555330300        1.2014547309
 N          4.0274899901       -0.3876212613        0.3664744422
 S          3.5532696403        1.0221602591        1.1186724715
 O          4.7948763005        1.7310845886        1.3433004220
 O          2.7667931595        0.7340227098        2.2906331611
 C          2.5849318614        1.9036670792       -0.0899529293
 C          3.2507071523        2.4829599687       -1.1534380691
 C          2.5205426732        3.1637917087       -2.1127986897
 C          1.1421311932        3.2557608494       -1.9913405205
 C          0.4898914423        2.6727939400       -0.9168382007
 C          1.2147701714        1.9831425699        0.0421716799
 H          0.7370812807        1.5139086604        0.8890379997
 H         -0.5810775878        2.7396408405       -0.8191890214
 H          0.5699807139        3.7868964495       -2.7353697610
 H          3.0248662939        3.6214016683       -2.9484887395
 H          4.3249989623        2.4078511281       -1.1985383384
 H          4.9000344204       -0.2623075318       -0.1255756174
 H          4.4333352908       -1.7097561121       -1.8952948173
 H          2.8319952607       -3.2497101416       -2.9645236478
 H          0.6265942599       -3.6446366903       -1.9643509990
 H         -0.1829753317       -2.8412276591        1.3948814903
 C         -1.2790189210       -3.5272996690       -0.3095655601
 C         -1.0713583918       -4.9900185591       -0.0617918496
 C         -2.2611524918       -4.2919659883        0.5238596195
 H         -3.2374049417       -4.4988935780        0.1115559090
 H         -2.2700601724       -4.0955680181        1.5866257594
 H         -1.2333830216       -5.6804616292       -0.8755142895
 H         -0.2721372523       -5.2742905092        0.6059807509
 H         -1.6014748202       -3.2145398091       -1.2956369704
