  62
        -98.93594474
 C         -2.7736070082       -1.0904579486       -0.2350074104
 C         -2.5008894998        0.0094419635       -1.0854599491
 C         -3.2882141875        1.2247265137       -0.8289122350
 C         -4.2000686219        1.2446177205        0.1586961845
 C         -5.0721738163        2.4096813201        0.5398029633
 C         -4.3887881799        3.4146260319        1.4776202560
 C         -3.3156426339        4.2883092228        0.8265136963
 H         -3.7254937705        4.7585770448       -0.0678857199
 H         -3.0796743253        5.0850225942        1.5346724826
 C         -2.0197617708        3.5452999996        0.4721077518
 H         -1.9788983084        2.6007516302        1.0200968050
 H         -1.1607616140        4.1383437069        0.7939946935
 C         -1.8414907064        3.2620638326       -1.0195872872
 H         -1.7516826252        4.2048522224       -1.5635407721
 H         -0.9103081107        2.7059726012       -1.1546267442
 C         -2.9766198343        2.4422714942       -1.6469001026
 H         -3.8669228170        3.0594550095       -1.7635378094
 H         -2.6512083146        2.1055719065       -2.6343153281
 H         -3.9536217057        2.8675623834        2.3172654510
 H         -5.1672637401        4.0695095083        1.8756738266
 H         -5.4151927683        2.9226524913       -0.3590649270
 H         -5.9399587428        1.9925840628        1.0551710787
 O         -4.4473099200        0.1615314642        0.9422987736
 C         -3.7358658787       -1.0136055141        0.7771833833
 O         -4.0529547730       -1.9168857501        1.5768472855
 H         -0.0652584561       -0.5941346168       -0.4961805844
 C          0.1622208589       -1.3625770853        0.2284595149
 C         -0.7508291359       -2.3873927473        0.4362700474
 C         -0.4374237493       -3.3778487202        1.3587051621
 C          0.7607841937       -3.3400849548        2.0513749350
 C          1.6661587151       -2.3148751859        1.8442386858
 C          1.3607870864       -1.3184312808        0.9258153920
 N          2.2610633642       -0.2490465879        0.7149125346
 S          3.8091359074       -0.6753892918        0.1814431041
 O          3.7236251937       -1.3864303175       -1.0763998419
 O          4.4879744540       -1.3638961529        1.2490657258
 C          4.5275142907        0.9357411464       -0.0609699762
 C          5.1081146933        1.5734659948        1.0182953149
 C          5.6353072055        2.8426968362        0.8412961266
 C          5.5708383637        3.4501660445       -0.4039120758
 C          4.9851566385        2.7969313246       -1.4779187375
 C          4.4558818448        1.5272583591       -1.3075663015
 H          3.9995124907        0.9800791234       -2.1173199977
 H          4.9376227518        3.2705833457       -2.4453418181
 H          5.9815301036        4.4382223374       -0.5395292081
 H          6.0937719598        3.3532141830        1.6728007185
 H          5.1409133134        1.0594274465        1.9645519295
 H          1.8729897109        0.4115471467        0.0524052204
 H          2.6063326130       -2.2818291268        2.3696420544
 H          0.9921546685       -4.1170609370        2.7643559098
 H         -1.1438239390       -4.1754071831        1.5382831914
 C         -2.0460848717       -2.4218666530       -0.3345082803
 H         -2.7072965164       -3.1480952037        0.1637121169
 C         -1.8649861047       -2.8903928624       -1.7732233562
 C         -0.5401637259       -2.9813766501       -2.4635138612
 C         -1.2538286685       -4.2317691833       -2.0516844313
 H         -1.6950014270       -4.8551740148       -2.8144771154
 H         -0.8526382191       -4.7779578560       -1.2109400083
 H         -0.5054452109       -2.7218545802       -3.5107791572
 H          0.3497369317       -2.6988357480       -1.9218059167
 H         -2.7063185349       -2.6044692245       -2.3965313060
 O         -1.6471223553        0.0061352907       -2.0104430159
