  62
        -98.94129343
 C          1.7881527687        0.6487148734       -0.1235246703
 C          2.9501296425        1.1397598154        0.5290543383
 C          4.2380653665        0.6898531322       -0.0084623391
 C          4.2639401374       -0.1559728088       -1.0537834951
 C          5.4964871280       -0.6911603434       -1.7305822845
 C          6.1069397517       -1.9170464666       -1.0375973618
 C          6.8204670442       -1.6294799987        0.2841008326
 H          7.3838825104       -2.5274589406        0.5455285611
 H          7.5414540417       -0.8243183577        0.1387911537
 C          5.8821095329       -1.2798257331        1.4476663720
 H          4.8641927341       -1.5904835693        1.2004644763
 H          6.1797833107       -1.8407155489        2.3365199431
 C          5.8698165596        0.2004714649        1.8291748040
 H          6.8536171553        0.4900594426        2.2050929981
 H          5.1464003736        0.3403433187        2.6363487862
 C          5.4879368952        1.1452936154        0.6822822245
 H          5.2943695655        2.1347171907        1.1038895275
 H          6.3090366256        1.2231194670       -0.0301378181
 H          5.3176964696       -2.6544796612       -0.8732094965
 H          6.8310473025       -2.3546096768       -1.7288245604
 H          5.1960001292       -0.9808598975       -2.7399238291
 H          6.2459884365        0.0975046847       -1.8040661094
 O          3.1314619385       -0.6194158322       -1.6420094956
 C          1.8683517590       -0.2499211064       -1.1890515010
 O          0.9402900417       -0.7837929544       -1.8238660788
 H         -1.5869367040        0.1296249383       -1.1175003468
 C         -1.4493152083       -0.4452006297       -0.2148300661
 C         -0.4465100283       -0.0944354951        0.6753068316
 C         -0.2721346368       -0.8705064847        1.8168376994
 C         -1.0837330114       -1.9628429579        2.0644287014
 C         -2.0862264645       -2.3073194601        1.1740141653
 C         -2.2551009650       -1.5485377907        0.0255679787
 N         -3.3017058601       -1.8808569575       -0.8713093581
 S         -4.8088893197       -1.3901810492       -0.3270147352
 O         -5.1513571646       -2.1620931474        0.8398279193
 O         -5.7041936346       -1.4993125325       -1.4563848431
 C         -4.5725301647        0.3213788679        0.1184230942
 C         -4.7225144072        1.2895298699       -0.8542794160
 C         -4.4319074276        2.6071122436       -0.5391999541
 C         -3.9845878814        2.9292701220        0.7332236509
 C         -3.8376221365        1.9449056693        1.6986620112
 C         -4.1316539048        0.6264262090        1.3906510355
 H         -4.0292126234       -0.1675376324        2.1122115089
 H         -3.4860656552        2.1979524521        2.6860127331
 H         -3.7480951201        3.9539929675        0.9742933242
 H         -4.5468027239        3.3761147483       -1.2863214192
 H         -5.0717979443        0.9961827409       -1.8315033044
 H         -3.1464321855       -1.5087558242       -1.7984005189
 H         -2.7429713943       -3.1429646050        1.3541302064
 H         -0.9366700417       -2.5506345836        2.9578691734
 H          0.5122862572       -0.6065207374        2.5127670963
 C          0.4467164895        1.0933041068        0.4337142099
 H          0.6972378730        1.5352146943        1.4115082535
 C         -0.2506356006        2.1845646760       -0.3659525810
 C          0.5366643870        3.2962195622       -0.9899018031
 C         -0.1635182477        2.2955250275       -1.8574288659
 H         -1.0452988560        2.6131383662       -2.3950557405
 H          0.4299373141        1.5673613662       -2.3878625316
 H          0.1437156522        4.3000851712       -0.9384287976
 H          1.6133219954        3.2425998278       -0.9186598504
 H         -1.2024751595        2.4558396937        0.0816137923
 O          2.9107758043        1.9212606698        1.5154493947
