  62
        -98.94490278
 C          1.9214012586        0.1786094379        0.0840024792
 C          2.9520982803        0.9918512618        0.6140892807
 C          4.2567929766        0.3428692686        0.7809274433
 C          4.4000307464       -0.9571367253        0.4649860894
 C          5.6621461357       -1.7656235861        0.5977907361
 C          6.6219977365       -1.6221819322       -0.5914054128
 C          7.3561767012       -0.2834375366       -0.6775163706
 H          8.1484632187       -0.4002308795       -1.4196502540
 H          7.8350944049       -0.0711663227        0.2788450444
 C          6.4688375991        0.9008680129       -1.0857260388
 H          5.5436142751        0.5267708510       -1.5302527475
 H          6.9768688287        1.4888908459       -1.8534791894
 C          6.1184191818        1.8538703422        0.0570450793
 H          5.4589818854        2.6316378027       -0.3362686256
 H          7.0271267421        2.3363658622        0.4236628637
 C          5.4083782805        1.1848758240        1.2412595918
 H          5.0087773366        1.9689382561        1.8890127383
 H          6.1150234613        0.5842576566        1.8133887544
 H          6.0620222742       -1.7911100100       -1.5141710804
 H          7.3675241538       -2.4161471535       -0.5056942440
 H          6.1783788821       -1.4925225011        1.5185136075
 H          5.3546763933       -2.8112584397        0.6678474230
 O          3.3748497484       -1.7138863125       -0.0096017688
 C          2.1186145796       -1.1656419381       -0.2313030338
 O          1.2867556411       -1.9675902812       -0.6964667472
 H         -1.7022162230       -0.6153813550       -0.9592292710
 C         -1.5573980828       -0.6002511954        0.1072944470
 C         -0.4781750909        0.0617005754        0.6691222218
 C         -0.3227643765        0.0311377888        2.0538607453
 C         -1.2150175128       -0.6577096873        2.8505091043
 C         -2.2892780451       -1.3231074513        2.2846595543
 C         -2.4562763968       -1.2968732707        0.9060616976
 N         -3.5260198143       -1.9822725501        0.3083045710
 S         -4.4392828922       -1.2660397792       -0.8929273397
 O         -5.6211399440       -2.0940901042       -0.9892826357
 O         -3.6656245802       -1.1161643603       -2.0981099824
 C         -4.8714130523        0.3299652361       -0.2247852237
 C         -4.1045598149        1.4336820725       -0.5376602169
 C         -4.4155995152        2.6510414852        0.0478647087
 C         -5.4801571682        2.7430328725        0.9308351869
 C         -6.2435427095        1.6250032682        1.2318079174
 C         -5.9354353153        0.4047641529        0.6533108882
 H         -6.5093480708       -0.4859650015        0.8514496190
 H         -7.0740099868        1.7008497959        1.9150665650
 H         -5.7172698333        3.6924709242        1.3843910204
 H         -3.8242959508        3.5215954605       -0.1874591095
 H         -3.2872137086        1.3251273900       -1.2309459464
 H         -4.1182741006       -2.4773068424        0.9588831651
 H         -2.9838255314       -1.8703185477        2.9037996485
 H         -1.0771892191       -0.6771223622        3.9210454665
 H          0.5194746270        0.5478390203        2.4935214380
 C          0.5532807765        0.7963543042       -0.1491248957
 H          0.6318851072        1.8230810254        0.2375867619
 C          0.2454375533        0.8578104174       -1.6295281871
 C         -0.6633241849        1.9221930532       -2.1646076149
 C          0.8086042611        1.9853454434       -2.4398352440
 H          1.1589425031        1.7768673289       -3.4396700098
 H          1.3951000016        2.7269351201       -1.9171943582
 H         -1.0698968030        2.6301115292       -1.4580211530
 H         -1.3285541839        1.6699408176       -2.9774496328
 H          0.2170832317       -0.1203979663       -2.0969749381
 O          2.7873022802        2.1987037661        0.9363667097
