  62
        -98.93469750
 C          1.7016224301        0.2033967101       -0.7014938202
 C          2.9016492401       -0.1073830305       -1.3880035400
 C          4.1631169901        0.2142486102       -0.6989677404
 C          4.1127948802        0.8276545614        0.4956067490
 C          5.2672486702        1.1811926623        1.3916727585
 C          5.5145290104        0.0631542533        2.4188276096
 C          6.4378178904       -1.0575705672        1.9420135606
 H          7.4603529803       -0.6787123372        1.8839591401
 H          6.4208371505       -1.8385222764        2.7057776113
 C          6.0704196603       -1.6814966485        0.5929513612
 H          6.5374276703       -2.6670274685        0.5423526521
 H          4.9907336103       -1.8335277685        0.5403669915
 C          6.5415253901       -0.8467106596       -0.6073140096
 H          7.2454926001       -0.0909780092       -0.2592552104
 H          7.0923512901       -1.4879126002       -1.2984417990
 C          5.4243110301       -0.1750548304       -1.4207983902
 H          5.0918206900       -0.8530903312       -2.2130366795
 H          5.8298461200        0.7116091391       -1.9191841911
 H          5.9524033204        0.5028383941        3.3173337991
 H          4.5435162804       -0.3530638265        2.7003581901
 H          6.1606337502        1.3850167018        0.8088955683
 H          4.9799720103        2.0885252528        1.9271700177
 O          2.9390303702        1.1749915119        1.0896529887
 C          1.7082086302        0.8744026113        0.5220156891
 O          0.7367681102        1.2641992619        1.1956147988
 O          2.9193018900       -0.6391410116       -2.5302561095
 C          0.3921910501       -0.1716317306       -1.3717315798
 C         -0.5967580200        0.9622266695       -1.2859860208
 C         -0.3026610801        2.1559357689       -1.9398545819
 C         -1.1765143701        3.2237242289       -1.8848031629
 C         -2.3689198300        3.1182365095       -1.1909555327
 C         -2.6772461299        1.9283214201       -0.5417861815
 C         -1.7923406499        0.8597490801       -0.5924317706
 H         -2.0243254198       -0.0370521094       -0.0441866197
 N         -3.9084520499        1.7832671207        0.1060072287
 S         -4.2158079997        0.6554941018        1.2926243798
 O         -5.5340057697        1.0178775822        1.7727174796
 O         -3.1820932897        0.5918227928        2.2979208998
 C         -4.3227309898       -0.8926147190        0.4179805313
 C         -4.9129589599       -0.9282111602       -0.8297761486
 C         -5.0052032899       -2.1426290409       -1.4910386374
 C         -4.5152986198       -3.2952987803       -0.8960236764
 C         -3.9341913597       -3.2446892691        0.3614557136
 C         -3.8374266897       -2.0327734484        1.0271305624
 H         -3.3832658996       -1.9428148375        2.0017143523
 H         -3.5545059696       -4.1418368386        0.8244266344
 H         -4.5852139998       -4.2386452808       -1.4142654454
 H         -5.4566533900       -2.1863643618       -2.4690528773
 H         -5.2798966399       -0.0139873307       -1.2651885294
 H         -4.4548261999        2.6240117108        0.2126696380
 H         -3.0537026501        3.9513346395       -1.1466418234
 H         -0.9297805002        4.1478638684       -2.3857456438
 H          0.6307396099        2.2389837784       -2.4801555421
 H          0.6584719800       -0.3066523916       -2.4336365396
 C         -0.1821452799       -1.4987070101       -0.8974054184
 C          0.7156202202       -2.6119881697       -0.4503786274
 C         -0.1590252697       -1.9104296787        0.5427436620
 H         -1.0149026397       -2.4379853584        0.9368414425
 H          0.2936319003       -1.2328667480        1.2506479413
 H          0.4619405702       -3.6212689299       -0.7366390565
 H          1.7780936202       -2.4191731496       -0.4237462677
 H         -1.0581552399       -1.7887953307       -1.4701212081
