  62
        -98.93751084
 C         -2.0535588010       -1.3232471994       -0.0879170206
 C         -2.4777567006       -0.2446849488       -0.8992803800
 C         -3.8841356703        0.1708554019       -0.7470500595
 C         -4.6785867805       -0.4792781281        0.1198751704
 C         -6.1420609603       -0.2526923574        0.4056036508
 C         -6.6212134095        1.1996041228        0.5367206115
 C         -5.5925450688        2.1715020720        1.1330842418
 H         -6.0601919883        2.7267764419        1.9483266121
 H         -4.7532716591        1.6171203913        1.5567832913
 C         -5.0695751785        3.1869264922        0.1140892721
 H         -5.9108540484        3.5528164329       -0.4787412676
 H         -4.6530609479        4.0418510917        0.6522867224
 C         -3.9809577290        2.6725199420       -0.8272539384
 H         -3.0511347389        2.5207253412       -0.2715309386
 H         -3.7846058287        3.4497147022       -1.5700004580
 C         -4.3054577399        1.3606141025       -1.5605154089
 H         -5.3565984899        1.3111874732       -1.8339723787
 H         -3.7054718201        1.3303074926       -2.4740981190
 H         -6.9343935395        1.5701001834       -0.4383679782
 H         -7.5124843594        1.1818060330        1.1662313117
 H         -6.7228545808       -0.7516536467       -0.3756014193
 H         -6.3341236204       -0.7866768977        1.3393188906
 O         -4.2281394809       -1.5193822787        0.8773118898
 C         -2.9169667112       -1.9522792894        0.8101616193
 O         -2.6455935516       -2.8922642099        1.5837662588
 H          0.9810212994       -0.0286110205       -1.4722672306
 C          1.0241953197        0.0967877190       -0.4023230506
 C          0.2751921294       -0.7292196410        0.4204267792
 C          0.3323687198       -0.5287052316        1.7968954293
 C          1.1186567405        0.4731069677        2.3343251096
 C          1.8629787208        1.2987798577        1.5094248998
 C          1.8050353804        1.1113401283        0.1354698497
 N          2.5757068207        1.9392114383       -0.7047219201
 S          4.2206427107        1.9621827272       -0.3873384304
 O          4.4862230815        2.8527963966        0.7144568199
 O          4.8553287807        2.3000827674       -1.6417584304
 C          4.5981197499        0.2829001768        0.0834635487
 C          4.4906915791       -0.7005656827       -0.8800127517
 C          4.7061432685       -2.0200020730       -0.5183654223
 C          5.0184544186       -2.3325272038        0.7959854175
 C          5.1253363093       -1.3335958343        1.7508380579
 C          4.9102517200       -0.0117599640        1.3946285085
 H          4.9804046306        0.7947566257        2.1058423389
 H          5.3692519894       -1.5800108349        2.7716401177
 H          5.1795240081       -3.3615672740        1.0764554170
 H          4.6238729479       -2.7993126726       -1.2590035827
 H          4.2518897791       -0.4213884921       -1.8936535415
 H          2.4015730504        1.7826709288       -1.6870268301
 H          2.4842923813        2.0852538071        1.9067041300
 H          1.1535848108        0.6138820272        3.4039358396
 H         -0.2560225504       -1.1693348116        2.4395182591
 C         -0.6164751113       -1.8176744002       -0.1245771911
 H         -0.5754407916       -2.6670578406        0.5701968585
 C         -0.2167375519       -2.2964172698       -1.5048638514
 C          1.0512903776       -3.0790316304       -1.6666301620
 C         -0.2752221928       -3.7595219696       -1.8188413621
 H         -0.5910823431       -4.0613996990       -2.8063108121
 H         -0.6032093430       -4.4258254998       -1.0344684523
 H          1.6271415577       -3.2795037112       -0.7758125322
 H          1.6479343476       -2.9168883704       -2.5513469521
 H         -0.4955542417       -1.6093968093       -2.2942721510
 O         -1.7331347205        0.3433471111       -1.7262547799
