  62
        -98.94498142
 C          2.0623326901        1.3354458672        0.0215460608
 C          2.6573902942        0.6747615607        1.1224882111
 C          3.8314675732       -0.1495899761        0.8167818747
 C          4.2727425629       -0.2377470910       -0.4514851421
 C          5.4711473123       -1.0187425469       -0.9185128436
 C          5.1862057091       -2.5041713988       -1.1795437229
 C          4.9762764523       -3.3563018765        0.0727995271
 H          5.0010735992       -4.4012865870       -0.2425802911
 H          5.8099035207       -3.2035678156        0.7589422647
 C          3.6516101288       -3.0931594391        0.8027176279
 H          2.9676590399       -2.5637481999        0.1345085921
 H          3.1783729230       -4.0454883955        1.0534510628
 C          3.7917830182       -2.2997978511        2.1021974782
 H          4.3684706710       -2.8810694018        2.8250296401
 H          2.7930711246       -2.1430413956        2.5182791453
 C          4.4572836376       -0.9272275771        1.9353091610
 H          4.3102424336       -0.3608091481        2.8581405777
 H          5.5268046398       -1.0467048081        1.7647147241
 H          4.3088171758       -2.5836741602       -1.8258711416
 H          6.0400529197       -2.9081869968       -1.7282555556
 H          5.7933564888       -0.5609999440       -1.8562387892
 H          6.2772713133       -0.9242532833       -0.1904384811
 O          3.6688147300        0.4079953923       -1.4837369776
 C          2.5380207556        1.1879633338       -1.2817427219
 O          2.0681107345        1.6864334644       -2.3210960779
 O          2.2246220393        0.7661089340        2.3034122805
 C          0.8337330805        2.1952079655        0.2599412898
 C         -0.3513770126        1.5967487983       -0.4574922409
 C         -1.1811530608        2.3135895898       -1.3083826185
 C         -2.2386344938        1.6876026178       -1.9472294839
 C         -2.4990076813        0.3455980882       -1.7439101652
 C         -1.6891979486       -0.3755375106       -0.8742274738
 C         -0.6317091049        0.2530533576       -0.2361128113
 H          0.0012298828       -0.3113983501        0.4376417035
 N         -1.9552841581       -1.7345389204       -0.6418985093
 S         -3.5459850858       -2.2098886407       -0.4398134104
 O         -3.4831177846       -3.3934070644        0.3889581768
 O         -4.1703257799       -2.3790732412       -1.7284248761
 C         -4.3340463970       -0.8714028985        0.4387409661
 C         -3.8150201770       -0.4986180517        1.6628849527
 C         -4.3990323873        0.5560793839        2.3451247654
 C         -5.4874110911        1.2162101456        1.7951922852
 C         -6.0008306366        0.8258003506        0.5684289626
 C         -5.4188958688       -0.2268878636       -0.1196753688
 H         -5.7827977642       -0.5605331448       -1.0778060505
 H         -6.8485222517        1.3391347599        0.1441547395
 H         -5.9372322254        2.0389694924        2.3280037149
 H         -4.0004999014        0.8602605945        3.2997274587
 H         -2.9700782205       -1.0333131806        2.0668919081
 H         -1.3482046447       -2.1652674630        0.0390856283
 H         -3.3048942509       -0.1586708846       -2.2519268094
 H         -2.8666963608        2.2532981735       -2.6181195837
 H         -0.9934870896        3.3597533998       -1.4835156593
 H          0.6428169548        2.1326799828        1.3416714748
 C          1.1076098658        3.6386998268       -0.1024202974
 C          0.3486966144        4.7403340730        0.5732055105
 C          1.7940540059        4.5171192550        0.8988975579
 H          2.5218806559        5.2314443729        0.5443338305
 H          2.0437075966        4.0797310475        1.8546770743
 H          0.0841648137        5.6134635439       -0.0036858458
 H         -0.3858021856        4.4600643555        1.3127103556
 H          1.3784607123        3.7636899399       -1.1445257666
