  62
        -98.93800550
 C          1.5886332088        1.6198990408        0.2671913691
 C          1.7680845597        0.4551751212        1.0534004996
 C          2.8688081200       -0.4537075884        0.6820376495
 C          3.6240739695       -0.1446571585       -0.3886033309
 C          4.8003888596       -0.8938682381       -0.9590560010
 C          4.3917958300       -2.1490555386       -1.7435778003
 C          3.3514943907       -3.0186353889       -1.0446190696
 H          2.4595816405       -2.4182867393       -0.8616950095
 H          3.0743983009       -3.8231509393       -1.7309947592
 C          3.8144400515       -3.6541569981        0.2644952505
 H          3.0392124620       -4.3570813184        0.5802130811
 H          4.7236729717       -4.2309468977        0.0817645304
 C          4.0733745114       -2.6867151275        1.4229616600
 H          5.0465737811       -2.2113633970        1.3309434195
 H          4.1059333221       -3.2801767871        2.3412137102
 C          2.9949183909       -1.6265479780        1.6242076900
 H          3.1228191211       -1.1857207775        2.6200118097
 H          2.0097212612       -2.1058096885        1.6489602405
 H          5.2893590902       -2.7360612382       -1.9462089304
 H          3.9746365995       -1.8300190392       -2.7019357703
 H          5.3052229490       -0.2061552681       -1.6412815614
 H          5.5000092601       -1.1467247174       -0.1677362611
 O          3.3739636486        0.9546372911       -1.1540589812
 C          2.3612771082        1.8529636407       -0.8701350312
 O          2.2738332575        2.7841520303       -1.6935028716
 O          1.0415084902        0.1862068312        2.0482511999
 C          0.4846412184        2.5714273704        0.6984248291
 C         -0.7789549017        2.2402134794       -0.0566463003
 C         -0.9462604523        2.5776691388       -1.3952534803
 C         -2.1022978324        2.2209039679       -2.0666465798
 C         -3.1101610118        1.5226362176       -1.4233722891
 C         -2.9439777111        1.1677869183       -0.0913360091
 C         -1.7859718711        1.5305834991        0.5826106104
 H         -1.6521837305        1.2391254896        1.6156969305
 N         -3.9589032005        0.4425659880        0.5697860416
 S         -4.3023945699       -1.0902878924       -0.0085129076
 O         -4.7909786105       -0.9818473532       -1.3589227075
 O         -5.2048135993       -1.6734916825        0.9569820929
 C         -2.7452321895       -1.9596171816        0.0116823722
 C         -1.8502645599       -1.7569600616       -1.0198812282
 C         -0.6251928096       -2.4022480909       -0.9766635384
 C         -0.3190414088       -3.2348688203        0.0884021918
 C         -1.2255606483       -3.4218774604        1.1199518822
 C         -2.4494868887       -2.7742936110        1.0861095724
 H         -3.1861160883       -2.8956504311        1.8641441527
 H         -0.9807107177       -4.0663651499        1.9489906824
 H          0.6322770315       -3.7427525698        0.1110154917
 H          0.0854822701       -2.2515633509       -1.7743388287
 H         -2.1237133706       -1.1100309020       -1.8377187884
 H         -3.8163791501        0.3895241785        1.5691236216
 H         -4.0099456118        1.2275680569       -1.9385278387
 H         -2.2216191829        2.4900707374       -3.1054312699
 H         -0.1533323128        3.0981140790       -1.9096925008
 H          0.3060413589        2.3399270707        1.7573121893
 C          0.8541173676        4.0355997905        0.5865521784
 C          0.0488595774        5.0418424404        1.3510003783
 C          1.4538004477        4.7313024313        1.7699946379
 H          2.2210419372        5.4708982216        1.5970300473
 H          1.6014940783        4.1533047917        2.6707595781
 H         -0.1522706033        5.9969618401        0.8909711580
 H         -0.7573071522        4.6730458202        1.9673307687
 H          1.2207708071        4.3212479103       -0.3898709918
