  62
        -98.94045359
 C          1.8357835511        1.1198995195        0.2335576805
 C          2.1271747108        0.0845967099       -0.6902735700
 C          3.5570696908       -0.1834499906       -0.9227390298
 C          4.4858624609        0.5450209787       -0.2797201592
 C          5.9683263909        0.3397203581       -0.3872504790
 C          6.4724983702       -0.6328677027        0.6881408005
 C          5.6619571397       -1.9257634324        0.7823441996
 H          6.1286029793       -2.5464804830        1.5503579294
 H          4.6528267897       -1.6912405122        1.1292824695
 C          5.5737496596       -2.7175179916       -0.5298415508
 H          6.3604978999       -2.3932263516       -1.2121115605
 H          5.7478566091       -3.7736716218       -0.3133796114
 C          4.2202384198       -2.6260053707       -1.2371281311
 H          3.4199212496       -2.8620743407       -0.5308115314
 H          4.1959699697       -3.3855794602       -2.0232166615
 C          3.9005831505       -1.2774356102       -1.8941885504
 H          4.7293057608       -0.9762150902       -2.5383178300
 H          3.0124280006       -1.4158975494       -2.5178611207
 H          7.5165142702       -0.8706654230        0.4762732706
 H          6.4284914402       -0.1305930132        1.6573282608
 H          6.2070091009       -0.0419357314       -1.3780491692
 H          6.4603131813        1.3043386978       -0.2510902684
 O          4.1696661512        1.5336974083        0.5944293513
 C          2.8495127712        1.8275253487        0.8887603511
 O          2.7071870714        2.7286238483        1.7387621216
 H         -1.3289904791        0.0804499315       -0.9345304907
 C         -1.2327656495       -0.3363629691        0.0560059891
 C         -0.3748228894        0.2575910700        0.9683677596
 C         -0.2460899200       -0.3153769408        2.2292189793
 C         -0.9631017205       -1.4482008306        2.5713026885
 C         -1.8185845606       -2.0383483198        1.6570428980
 C         -1.9379936001       -1.4829379890        0.3917372183
 N         -2.8323767601       -2.0734421181       -0.5367059223
 S         -4.4346218200       -1.6785447076       -0.2507675624
 O         -4.8210674205       -2.2231015782        1.0254367372
 O         -5.1792825899       -2.1385087266       -1.4007791328
 C         -4.4391476393        0.1044486024       -0.1835472114
 C         -4.6296279687        0.8158842131       -1.3512686510
 C         -4.5288153681        2.1973972630       -1.3188428802
 C         -4.2262417481        2.8387939722       -0.1272587598
 C         -4.0345933687        2.1096528615        1.0366331598
 C         -4.1392333193        0.7281255416        1.0112158990
 H         -3.9970016797        0.1267134910        1.8943075387
 H         -3.7944689787        2.6108080109        1.9607700402
 H         -4.1373088477        3.9137873922       -0.1050881192
 H         -4.6788261177        2.7684325336       -2.2211503699
 H         -4.8621218387        0.2773883137       -2.2562082214
 H         -2.5999503798       -1.8451866577       -1.4937880821
 H         -2.3991769210       -2.9118486597        1.9057516574
 H         -0.8551822509       -1.8755303412        3.5567801883
 H          0.4267674601        0.1397984886        2.9433145397
 C          0.4142010811        1.4941654799        0.6231529904
 H          0.5249202312        2.0915019693        1.5417471308
 C         -0.3145190583        2.3761806507       -0.3812064692
 C          0.3969074524        3.5129555708       -1.0499449884
 C         -0.0554073080        2.3338770515       -1.8555887092
 H         -0.8964206878        2.4622333222       -2.5215984993
 H          0.6886358018        1.6445698314       -2.2220800994
 H         -0.1241098472        4.4507391211       -1.1676955280
 H          1.4535139324        3.6209972003       -0.8513361281
 H         -1.3410791483        2.5585526610       -0.0770004393
 O          1.2597188407       -0.5874856294       -1.3047314806
