  62
        -98.94450500
 C         -1.8657302399       -0.8802412705        0.4253370591
 C         -2.1280711900        0.3123621103       -0.2916861596
 C         -3.4177356101        0.9579930698       -0.0111525488
 C         -4.2464383800        0.4419766287        0.9133713206
 C         -5.5776305201        1.0062420381        1.3287590813
 C         -6.7410721201        0.5961140790        0.4154510909
 C         -6.7581904902        1.2675527805       -0.9584220984
 H         -7.7330567602        1.0596289009       -1.4040266886
 H         -6.6815650803        2.3482961504       -0.8342831672
 C         -5.6632096102        0.7780433817       -1.9164241789
 H         -5.2595497500       -0.1701611487       -1.5540624600
 H         -6.0992618902        0.5853254827       -2.8992195991
 C         -4.5105485103        1.7617300921       -2.1176884979
 H         -4.8820281104        2.6673077325       -2.6025964369
 H         -3.7779680603        1.2992396229       -2.7839059084
 C         -3.7889391103        2.1618466907       -0.8241704675
 H         -2.8658557604        2.6816101911       -1.0925866569
 H         -4.4119592104        2.8384081200       -0.2396073967
 H         -6.7211083099       -0.4890227409        0.2906679197
 H         -7.6677635201        0.8537049683        0.9334040612
 H         -5.7767552500        0.6246546869        2.3325728709
 H         -5.5169258402        2.0939235880        1.3769749925
 O         -3.9434622499       -0.6832660020        1.6120094994
 C         -2.7715910498       -1.3774917016        1.3697832286
 O         -2.6463464796       -2.4145113924        2.0512509074
 H          0.5404051299        0.7065931904       -0.0942069792
 C          1.0474233300        0.1250485696        0.6614772901
 C          0.5718483502       -1.1396907208        0.9770348387
 C          1.2326705503       -1.8720383118        1.9557630579
 C          2.3413143103       -1.3503107523        2.6004197984
 C          2.8134837701       -0.0897909719        2.2814249298
 C          2.1536647300        0.6514818091        1.3102365806
 N          2.6401558198        1.9307919395        0.9616065620
 S          4.1969294098        1.9317063504        0.3366913820
 O          5.1408141498        1.8017194593        1.4182777218
 O          4.3036392996        3.1357099413       -0.4564747967
 C          4.2517689499        0.4803060916       -0.6988471196
 C          3.5428594399        0.5001835128       -1.8834729496
 C          3.5088058900       -0.6438797463       -2.6632807809
 C          4.1749360602       -1.7847669667       -2.2427050321
 C          4.8801899902       -1.7892133180       -1.0496253122
 C          4.9182549501       -0.6474712388       -0.2655614509
 H          5.4531369201       -0.6076509598        0.6689797091
 H          5.3953178903       -2.6789897183       -0.7257232332
 H          4.1452784502       -2.6760229261       -2.8498052731
 H          2.9585752800       -0.6417312254       -3.5907846508
 H          3.0386844698        1.4059008131       -2.1813876286
 H          2.0205646997        2.4189504101        0.3295264426
 H          3.6816515101        0.3304996776        2.7631008802
 H          2.8438364204       -1.9316033631        3.3583193877
 H          0.8656659404       -2.8538130021        2.2171598168
 C         -0.6099086398       -1.7180948101        0.2366348381
 H         -0.8389242996       -2.6944019506        0.6836580370
 C         -0.2541065898       -1.9301197984       -1.2236023322
 C          0.6123640403       -3.0925556779       -1.5983962235
 C         -0.8418343497       -3.0931379977       -1.9615997334
 H         -1.1188362697       -2.9597346765       -2.9965998133
 H         -1.5052051696       -3.7481110484       -1.4150581541
 H          1.3390494003       -2.9573936069       -2.3837843534
 H          0.9367983704       -3.7501626187       -0.8065547942
 H         -0.1244636799       -1.0066431478       -1.7717296111
 O         -1.3435504801        0.8394029513       -1.1265830590
