  62
        -98.93530843
 C         -2.3262813888       -1.1238687892       -0.5023508876
 C         -3.3646624853       -0.6666359670        0.3477526386
 C         -3.9620260236        0.6490347422        0.0527684186
 C         -3.4935982916        1.3464446317       -0.9984941400
 C         -3.9036161247        2.7144800419       -1.4757416396
 C         -3.3416176732        3.8408380343       -0.5949367988
 C         -3.4798610968        3.6087486509        0.9072194822
 H         -2.9698077858        4.4304353322        1.4172616493
 H         -2.9548064118        2.6901409628        1.1771021659
 C         -4.9139743384        3.5510847957        1.4289586455
 H         -5.4265349783        4.4800108928        1.1696821577
 H         -4.8575115811        3.4961368406        2.5190726833
 C         -5.7599315003        2.3728005700        0.9396230657
 H         -6.1329282890        2.5450483435       -0.0663960076
 H         -6.6374417034        2.3113183866        1.5896648986
 C         -5.0652179393        1.0171488405        1.0153851258
 H         -5.8211916778        0.2300074393        0.9083567346
 H         -4.6498274307        0.8807069869        2.0204647693
 H         -3.8382327247        4.7731835675       -0.8693328192
 H         -2.2764717642        3.9460682030       -0.8173166377
 H         -4.9854151389        2.7803194564       -1.5427278693
 H         -3.4990205550        2.8277028890       -2.4840155996
 O         -2.4923240525        0.8701285290       -1.7899250401
 C         -1.8793775426       -0.3491770715       -1.5717534590
 O         -0.9794708048       -0.6046569157       -2.3991276323
 O         -3.7876293231       -1.3378196668        1.3277745802
 C         -1.7181776564       -2.4770076375       -0.1692606659
 C         -0.4279752815       -2.2982272763        0.5953917738
 C         -0.3172034034       -2.7051131901        1.9196841103
 C          0.8574153575       -2.5034587142        2.6240577223
 C          1.9430367678       -1.8888085327        2.0258489909
 C          1.8373792418       -1.4706969141        0.7061997294
 C          0.6651800318       -1.6866279765       -0.0020541946
 H          0.5877219858       -1.3460297856       -1.0243271275
 N          2.9351296729       -0.8224600594        0.0863521406
 S          3.2614928425        0.7346600023        0.6631538589
 O          3.3830735096        0.6789818519        2.0972831011
 O          2.2920165525        1.6760626366        0.1399948147
 C          4.8573669277        1.0277884020       -0.0725043536
 C          4.9378499866        1.7118573052       -1.2697129501
 C          6.1816014163        1.8998021242       -1.8521209279
 C          7.3164533092        1.3995666404       -1.2320193709
 C          7.2191357296        0.7143325852       -0.0300322511
 C          5.9787558099        0.5234037584        0.5571748966
 H          5.8550098441        0.0038636225        1.4927160025
 H          8.1041595470        0.3286678709        0.4497138607
 H          8.2826871492        1.5469789840       -1.6880324792
 H          6.2594185894        2.4338193835       -2.7855572919
 H          4.0300983281        2.0906651069       -1.7122397151
 H          2.7741331846       -0.7372456045       -0.9105292550
 H          2.8542097502       -1.7053187030        2.5702833393
 H          0.9270674896       -2.8247021686        3.6523232669
 H         -1.1678797985       -3.1642587839        2.4023449329
 H         -2.4409555432       -2.9574009952        0.5038269722
 C         -1.5231700712       -3.3678333978       -1.3800799057
 C         -1.3991819207       -4.8474521318       -1.1795876067
 C         -2.6342829566       -4.2768913340       -1.8079065878
 H         -2.7962275782       -4.4282930470       -2.8645209105
 H         -3.5437187394       -4.2625481775       -1.2250131152
 H         -0.7102080500       -5.3948287228       -1.8040683891
 H         -1.4716306353       -5.2221809094       -0.1699020667
 H         -0.9278702427       -2.9121828728       -2.1603429787
