  62
        -98.94256370
 C          1.9028034694        1.3410430004        0.0244717492
 C          2.3837512592        0.4464516787        1.0143802250
 C          3.2273544291       -0.6552576600        0.5394664825
 C          3.5183010804       -0.7541785101       -0.7699031437
 C          4.3708211354       -1.8161175188       -1.4098704768
 C          3.6147730227       -3.1151735129       -1.7222253547
 C          3.2570725727       -3.9712870060       -0.5062970889
 H          2.9320502442       -4.9425638283       -0.8848472183
 H          4.1523685029       -4.1392926274        0.0930232966
 C          2.1445553593       -3.3894326100        0.3778031147
 H          1.6005373533       -2.6219376721       -0.1783286280
 H          1.4282818566       -4.1781352105        0.6199355543
 C          2.6325630051       -2.7921296205        1.6981197171
 H          3.0574068201       -3.5813361569        2.3221580817
 H          1.7738916135       -2.3677944785        2.2241005225
 C          3.6763440933       -1.6794942769        1.5374509576
 H          3.7918594158       -1.1765057681        2.5004876972
 H          4.6375380296       -2.1013371333        1.2450344477
 H          2.7048228915       -2.8664458972       -2.2740861679
 H          4.2492731834       -3.7100231079       -2.3833957045
 H          4.7380550820       -1.3971118773       -2.3492997636
 H          5.2260282031       -2.0359759114       -0.7702564405
 O          3.0616568200        0.1379680813       -1.6878920600
 C          2.2289163009        1.1919568971       -1.3245332871
 O          1.8605996413        1.8908278206       -2.2881566081
 O          2.1200135047        0.5665666869        2.2402907960
 C          1.0120419747        2.4735141435        0.4885995165
 C         -0.4555489381        2.2626750206        0.1856081473
 C         -1.4076497890        3.0786032863        0.7909760993
 C         -2.7555716255        2.9047663449        0.5374035486
 C         -3.1893252532        1.9153142398       -0.3277592164
 C         -2.2495051028        1.0969509442       -0.9373519500
 C         -0.8970777615        1.2677182110       -0.6712741035
 H         -0.1807927110        0.6179649613       -1.1546831149
 N         -2.6758738021        0.0823139916       -1.8175471792
 S         -3.7546725119       -1.0414738437       -1.1996646672
 O         -3.6279862770       -2.2039543228       -2.0487668119
 O         -5.0651609529       -0.4475632090       -1.1246407463
 C         -3.1468347015       -1.3890455675        0.4397707583
 C         -2.0398888044       -2.2050138331        0.5638409601
 C         -1.5101541876       -2.4295755672        1.8235973570
 C         -2.0862299352       -1.8265046590        2.9311534075
 C         -3.1971938421       -1.0097423945        2.7898127006
 C         -3.7352061630       -0.7857304833        1.5325839982
 H         -4.6003284830       -0.1620611597        1.3802053402
 H         -3.6424730407       -0.5436101615        3.6537899688
 H         -1.6644341362       -1.9957798415        3.9092850199
 H         -0.6472239301       -3.0664369675        1.9362237091
 H         -1.6208093975       -2.6601414870       -0.3198497609
 H         -1.9112787140       -0.3886248517       -2.2793648138
 H         -4.2348711963        1.7618137250       -0.5402682239
 H         -3.4787740395        3.5459499186        1.0170595430
 H         -1.0833440082        3.8534639626        1.4673082193
 H          1.1204840389        2.4906040580        1.5829974953
 C          1.4647151229        3.8166509236       -0.0592419379
 C          1.4362127124        5.0418618505        0.8021200200
 C          2.7465234284        4.4133677676        0.4375778590
 H          3.3897194903        4.9140454171       -0.2701934380
 H          3.2813524150        3.8706711978        1.2038138668
 H          1.1726490457        5.9838467940        0.3461818952
 H          1.1047577127        4.9367256347        1.8240574243
 H          1.2446184508        3.9345321628       -1.1134899441
