  62
        -98.94703163
 C         -1.5197669746       -1.0684749280        0.0820543811
 C         -2.5323176895       -0.6103189016        0.9552015428
 C         -3.1054402795        0.7041684459        0.6412793193
 C         -2.6151747210        1.4031483371       -0.3993709295
 C         -3.1333554103        2.7361364650       -0.8545672208
 C         -4.2348742807        2.5758998640       -1.9118546176
 C         -5.3272930293        1.5815773603       -1.5182013786
 H         -6.0644700868        1.5725175838       -2.3237721777
 H         -4.8943337839        0.5801316991       -1.4655647910
 C         -6.0259647365        1.9007465608       -0.1892488186
 H         -5.8442432913        2.9406660270        0.0844161850
 H         -7.1033851124        1.7835082564       -0.3225242411
 C         -5.6204352515        0.9936168728        0.9738171214
 H         -6.3216846640        1.1601852913        1.7958218203
 H         -5.7123324770       -0.0525795003        0.6716027031
 C         -4.2071211058        1.2109897685        1.5296025048
 H         -4.1250436472        0.6428926871        2.4613121151
 H         -4.0591579915        2.2683101543        1.7607964312
 H         -4.6799390449        3.5553174139       -2.0961842877
 H         -3.7746460840        2.2308197621       -2.8404643741
 H         -2.3004510911        3.2956005652       -1.2844527674
 H         -3.5154226761        3.2832628769        0.0053718767
 O         -1.6139623564        0.9485427659       -1.1923838980
 C         -1.0305532773       -0.2859317456       -0.9650193562
 O         -0.1112162227       -0.5751201427       -1.7544357526
 O         -2.9313401514       -1.2678955753        1.9567038252
 C         -0.8708261469       -2.4173078409        0.3422652318
 C          0.6142278961       -2.2236850895        0.5163290148
 C          1.5765234197       -2.9973637392       -0.1192795306
 C          2.9224768293       -2.7022557274        0.0183910753
 C          3.3349825952       -1.6191190893        0.7729878004
 C          2.3803752972       -0.8565903180        1.4315683952
 C          1.0394806023       -1.1764379618        1.3252349523
 H          0.3043369964       -0.5627747849        1.8322800896
 N          2.8006791309        0.3157569512        2.1295716350
 S          2.5637584559        1.6734158923        1.1463369129
 O          3.0890337838        2.7961925595        1.8957222076
 O          1.1773323663        1.7996546069        0.7461712293
 C          3.6093306774        1.3123377866       -0.2425737461
 C          4.9527036954        1.6196224608       -0.1421419926
 C          5.7941037281        1.2931890401       -1.1929174068
 C          5.2797153719        0.6619676198       -2.3159556565
 C          3.9293733952        0.3590938240       -2.3981212798
 C          3.0789702356        0.6840983614       -1.3519748313
 H          2.0246315487        0.4520034560       -1.3865735555
 H          3.5252842068       -0.1355373596       -3.2667451465
 H          5.9345518655        0.4030668335       -3.1330365576
 H          6.8447161135        1.5272259402       -1.1322448363
 H          5.3018237493        2.1103654360        0.7514550895
 H          2.2781151431        0.4643811975        2.9839175715
 H          4.3758786670       -1.3526493740        0.8563477975
 H          3.6564357717       -3.3081995048       -0.4895603746
 H          1.2698103140       -3.8230681588       -0.7402940782
 H         -1.2959628243       -2.7712885466        1.2934536365
 C         -1.2303372248       -3.3999351200       -0.7523184758
 C         -1.2920662724       -4.8689548638       -0.4606304526
 C         -2.5552437488       -4.0970965447       -0.6919329426
 H         -3.0978108811       -4.2541101179       -1.6120351853
 H         -3.1889061494       -3.8816887481        0.1561600433
 H         -0.9698886644       -5.5602040260       -1.2245177326
 H         -1.0719957592       -5.1882404489        0.5467184397
 H         -0.8756212805       -3.0823534386       -1.7265735154
