  62
        -98.94236554
 C         -1.1525463688       -1.4412923788        0.4579507732
 C         -2.1382847743       -1.2262795455       -0.5314310699
 C         -3.2870354239       -0.3864660660       -0.1443243084
 C         -3.3215619786        0.1641728450        1.0834963830
 C         -4.3605041462        1.0349417048        1.7596658199
 C         -5.4882279655        1.6734940233        0.9537694021
 C         -5.0390395019        2.7650741124       -0.0177510724
 H         -5.9007609857        3.0656580997       -0.6178032687
 H         -4.7173253660        3.6340677417        0.5620700203
 C         -3.8907287697        2.3899281672       -0.9517891288
 H         -2.9929580257        2.1749569627       -0.3669332374
 H         -3.6626120996        3.2640341703       -1.5684587658
 C         -4.1679985592        1.2186052018       -1.8919881886
 H         -3.3282266770        1.1525011213       -2.5893863978
 H         -5.0711362228        1.4194981057       -2.4719011665
 C         -4.3147303933       -0.1537202257       -1.2141964689
 H         -5.3191362682       -0.2963451213       -0.8232093890
 H         -4.1436168759       -0.9225248038       -1.9735426328
 H         -6.1644877593        2.1363338012        1.6776704608
 H         -6.0586783724        0.9092287253        0.4342968167
 H         -3.7978981593        1.8217984188        2.2730794465
 H         -4.8045859868        0.4119181772        2.5441487028
 O         -2.3286034524       -0.0507327509        1.9968390059
 C         -1.2221215886       -0.8268623959        1.7060205486
 O         -0.3813332526       -0.8931103746        2.6270375847
 O         -2.0726498534       -1.7159056500       -1.6893935941
 C          0.0791859729       -2.2676023599        0.1398134411
 C          0.8802635561       -1.5989430844       -0.9522607390
 C          1.5044961894       -2.2870645556       -1.9848484404
 C          2.2488367185       -1.6015047908       -2.9299102386
 C          2.4137126546       -0.2301974595       -2.8517081704
 C          1.7983321282        0.4656412446       -1.8176333652
 C          1.0325513569       -0.2208929611       -0.8904434735
 H          0.5353881517        0.3351216982       -0.1105213764
 N          1.9445059179        1.8547472579       -1.6747710463
 S          2.0953284877        2.4814618679       -0.1288071958
 O          0.8091287047        2.5411010803        0.5196683111
 O          2.7579913599        3.7541418383       -0.3241655873
 C          3.1966062295        1.3516901875        0.7054059549
 C          2.7394853315        0.5013728868        1.6908941669
 C          3.6283076589       -0.3981723443        2.2604035014
 C          4.9479795100       -0.4331365635        1.8396940344
 C          5.3943128605        0.4350835927        0.8544558714
 C          4.5116702621        1.3335278422        0.2796325710
 H          4.8217447593        2.0315413574       -0.4810275778
 H          6.4226517847        0.4107351556        0.5320344146
 H          5.6313766771       -1.1391246891        2.2844821904
 H          3.2719645373       -1.0685410279        3.0265637790
 H          1.7067152723        0.5358790426        2.0028615261
 H          2.5921279774        2.2838549509       -2.3193381967
 H          3.0032356610        0.2991383071       -3.5842473532
 H          2.7186816230       -2.1459456823       -3.7347056931
 H          1.4018853796       -3.3574722307       -2.0544402462
 H          0.6944602313       -2.2541192216        1.0525592237
 C         -0.2966516320       -3.7007514939       -0.1721500936
 C          0.6488662321       -4.8159051833        0.1561782731
 C         -0.5989357341       -4.6293007882        0.9643110280
 H         -1.4029586463       -5.3405457848        0.8496046776
 H         -0.5085503862       -4.2322540847        1.9652959568
 H          0.7006574757       -5.6616608943       -0.5127213727
 H          1.5908593646       -4.5548787050        0.6142305233
 H         -0.9053874324       -3.7865772481       -1.0643937592
