  62
        -98.93033892
 C          2.1852136040        0.7107351435       -0.1462052549
 C          3.4910978778        1.2400148901       -0.3072071011
 C          4.5969279052        0.4365593060        0.2342337049
 C          4.3149801200       -0.7104269471        0.8777653591
 C          5.3280922176       -1.6821121174        1.4130674549
 C          5.9185013605       -2.5162735957        0.2581545552
 C          7.4071099879       -2.2772352377        0.0043426409
 H          7.9846247264       -2.7841233562        0.7802321198
 H          7.6547788655       -2.7462615638       -0.9502893780
 C          7.8524387968       -0.8120238694       -0.0292265070
 H          7.9585454920       -0.4371457756        0.9897866982
 H          8.8499334020       -0.7936148921       -0.4733025991
 C          6.9473053602        0.1472427307       -0.8129399295
 H          7.5842676796        0.8547415972       -1.3476076305
 H          6.3734748832       -0.3939621914       -1.5656758079
 C          5.9883876970        0.9793573481        0.0589849287
 H          5.8485644145        1.9576498860       -0.4103819346
 H          6.4404802561        1.1474596721        1.0402936785
 H          5.7728854759       -3.5776761923        0.4647500739
 H          5.3524859252       -2.2938982307       -0.6490802650
 H          6.1142121168       -1.1423772634        1.9364600545
 H          4.8133347162       -2.3280750646        2.1245395617
 O          3.0467966867       -1.1617361441        1.0565630438
 C          1.9486541464       -0.4699560357        0.5582631768
 O          0.8569603739       -1.0081258564        0.8214135871
 O          3.7199348832        2.3418623955       -0.8740232046
 C          1.0298362286        1.5121374581       -0.7179974567
 C         -0.0941182585        1.6086091908        0.2825120992
 C          0.1530599774        2.2300064411        1.5040104338
 C         -0.8379189774        2.3224611097        2.4610500787
 C         -2.0975597768        1.8048780185        2.2173252532
 C         -2.3602022130        1.1964809458        0.9952583155
 C         -1.3612789310        1.1045416749        0.0362672019
 H         -1.5799268375        0.6023737181       -0.8901271774
 N         -3.6542578040        0.7223727490        0.7167250024
 S         -3.9392300260       -0.5453451392       -0.3546433734
 O         -3.3027441059       -1.7634644337        0.0937599872
 O         -3.6286960151       -0.1098205415       -1.6930190141
 C         -5.7092785423       -0.6787951163       -0.1710080504
 C         -6.5080372374        0.2611780975       -0.7947254920
 C         -7.8825400132        0.1830432309       -0.6380907037
 C         -8.4335024472       -0.8283662770        0.1350085627
 C         -7.6200027013       -1.7663503420        0.7522818412
 C         -6.2439891200       -1.6926366971        0.6006206699
 H         -5.5725656768       -2.4035830205        1.0551146949
 H         -8.0508356165       -2.5535054581        1.3499419986
 H         -9.5037424834       -0.8875715109        0.2549623836
 H         -8.5184609059        0.9088411788       -1.1187799445
 H         -6.0357551666        1.0230751493       -1.3924347357
 H         -4.2114128144        0.6079512260        1.5526379060
 H         -2.8706962145        1.8697193097        2.9678463267
 H         -0.6284189187        2.7962242668        3.4085108829
 H          1.1415965552        2.6247597103        1.6977942034
 H          1.4438919133        2.5250673266       -0.8601224553
 C          0.5685907792        1.0375484437       -2.0877602119
 C          1.5071225762        0.3530976621       -3.0343315115
 C          0.3817896000       -0.4136539293       -2.4100183252
 H         -0.4616080711       -0.6956165909       -3.0244018514
 H          0.6071216791       -1.1309442018       -1.6356574907
 H          1.4451873482        0.5970609735       -4.0841347771
 H          2.5114046187        0.1557410035       -2.6885020125
 H         -0.1450263334        1.7238241327       -2.5345730370
