  62
        -98.94088443
 C         -1.8483532986       -0.7287509000        0.5531202848
 C         -2.3101193072        0.0231058155       -0.5559540683
 C         -3.4446714517        0.9194727601       -0.2868136238
 C         -3.9247709954        1.0445405371        0.9626382888
 C         -5.0645438988        1.9275908043        1.3922066562
 C         -6.4497590916        1.2999567979        1.1844156252
 C         -6.9145447820        1.2148411256       -0.2700467498
 H         -7.9762969621        0.9609830046       -0.2520387257
 H         -6.8225675711        2.1958081172       -0.7374241078
 C         -6.1718615488        0.1690450544       -1.1135127024
 H         -6.8938359933       -0.4101978112       -1.6933821192
 H         -5.6565531885       -0.5325263476       -0.4533538830
 C         -5.1617294631        0.7525738536       -2.1017174454
 H         -4.6716299667       -0.0755386044       -2.6201855743
 H         -5.6849323812        1.3532261272       -2.8489769273
 C         -4.0726295235        1.6183692620       -1.4545136239
 H         -3.2886788796        1.7968904606       -2.1948689049
 H         -4.4879541140        2.5779679668       -1.1471026956
 H         -7.1688642626        1.9081537588        1.7379523282
 H         -6.4506128470        0.3008040775        1.6264377791
 H         -4.9277119630        2.1154828737        2.4594651921
 H         -5.0114318935        2.8793551282        0.8627041613
 O         -3.3911034926        0.3740536167        2.0188571812
 C         -2.3586773778       -0.5330267393        1.8387509470
 O         -1.9738781245       -1.0820585803        2.8912240919
 H          0.6063078220        0.4676732877        1.0437712629
 C          0.9963074539        0.0372692499        0.1288370664
 C          0.4192102446       -1.1260778673       -0.3675499387
 C          0.9287822526       -1.6701191182       -1.5382825363
 C          1.9709146897       -1.0475294974       -2.2039180501
 C          2.5298091740        0.1193094317       -1.7176833690
 C          2.0340563571        0.6663934666       -0.5404026254
 N          2.5995882723        1.8478602571       -0.0317587894
 S          4.2664253067        1.9871980403       -0.0238656744
 O          4.5642805218        2.8916857323        1.0648333765
 O          4.7271060300        2.3992287570       -1.3264006144
 C          4.8739670257        0.3493031965        0.3396316045
 C          5.6657606942       -0.3124608472       -0.5764444527
 C          6.0989357288       -1.5960062522       -0.2844401995
 C          5.7315315400       -2.1934438126        0.9110622958
 C          4.9386300475       -1.5138587994        1.8234574997
 C          4.5041598086       -0.2300207167        1.5373975303
 H          3.8909892924        0.3265838989        2.2282793867
 H          4.6540020490       -1.9794698463        2.7534767777
 H          6.0648498181       -3.1943042618        1.1356485089
 H          6.7173348289       -2.1258370752       -0.9908005132
 H          5.9259819150        0.1888228006       -1.4943986714
 H          2.1989802924        2.1549945236        0.8417628794
 H          3.3266032717        0.6259972172       -2.2375858957
 H          2.3482417061       -1.4734249934       -3.1209705515
 H          0.4916105691       -2.5656447628       -1.9474104899
 C         -0.7162250186       -1.7329692874        0.4199822039
 H         -0.3582268238       -1.8924043163        1.4506681205
 C         -1.1541810056       -3.0947673715       -0.0987208770
 C         -2.5453976391       -3.5986364148        0.1416993358
 C         -2.1039428189       -3.2509907245       -1.2465614238
 H         -1.9345329734       -4.0571980197       -1.9453703560
 H         -2.4895256670       -2.3533289119       -1.7025037284
 H         -2.6773684258       -4.6392740252        0.3974560236
 H         -3.2384540130       -2.9367585205        0.6412067989
 H         -0.3602432779       -3.8308404938       -0.0199904355
 O         -1.8157614625       -0.0390827805       -1.7098284347
