  62
        -98.93562400
 C          2.0287150192        1.1964853096       -0.0975774192
 C          2.5126900295       -0.0416380301       -0.5764943598
 C          3.8946924794       -0.3996655702       -0.1983727697
 C          4.5947838692        0.4333339395        0.5922462709
 C          6.0079804691        0.2946874094        1.1002624011
 C          6.4303783392       -1.0919617208        1.6091188805
 C          7.4243265094       -1.8016726102        0.6879196203
 H          8.1336284094       -1.0635973399        0.3075929508
 H          7.9922290794       -2.5249113204        1.2774324601
 C          6.7998380698       -2.5529596097       -0.4865710102
 H          6.2910634498       -3.4454152599       -0.1156109707
 H          7.6132547099       -2.8886853392       -1.1342347702
 C          5.8069896098       -1.7455695494       -1.3250230800
 H          5.7483451601       -2.2100872789       -2.3117164202
 H          6.1707948597       -0.7293466292       -1.4733365394
 C          4.3878092297       -1.7146622898       -0.7373627102
 H          3.6628081499       -1.9844906295       -1.5117727205
 H          4.2888793296       -2.4759838002        0.0417899894
 H          5.5504531392       -1.7131903510        1.7685414200
 H          6.9100622590       -0.9572887912        2.5800071006
 H          6.0899189589        1.0259830090        1.9076688615
 H          6.6912618892        0.6240537199        0.3132834114
 O          4.0773508590        1.6116146892        1.0452908414
 C          2.8001560190        2.0236405692        0.7178950913
 O          2.4694638887        3.1221015290        1.2078014118
 O          1.8322116097       -0.8176729398       -1.2981830603
 C          0.6243462492        1.6630621796       -0.4423497293
 C         -0.3757538408        0.6883653992        0.1296560501
 C         -0.4337342310        0.5347711185        1.5128542700
 C         -1.3153227710       -0.3586542419        2.0895868893
 C         -2.1598677608       -1.1199563616        1.2998807788
 C         -2.1145234005       -0.9696693709       -0.0790677011
 C         -1.2346779305       -0.0614410405       -0.6566964405
 H         -1.2076261703        0.0360472500       -1.7302201704
 N         -2.9719317003       -1.7336971106       -0.8857637017
 S         -4.5687569603       -1.9043703810       -0.4244794921
 O         -4.6778218704       -2.9060974316        0.6066375274
 O         -5.2877306501       -2.1769302005       -1.6489700924
 C         -5.0316654107       -0.3098370514        0.2295997786
 C         -5.3875619909       -0.1835934521        1.5566545886
 C         -5.7091152812        1.0716778576        2.0481015892
 C         -5.6664342811        2.1735583980        1.2085098798
 C         -5.3105865309        2.0299452387       -0.1240216302
 C         -4.9883318706        0.7776745690       -0.6204937208
 H         -4.7144899104        0.6311036696       -1.6528297708
 H         -5.2804210408        2.8885665890       -0.7754490898
 H         -5.9127639713        3.1505076178        1.5935843502
 H         -5.9880333214        1.1862031570        3.0831951492
 H         -5.4080080009       -1.0659838825        2.1752488482
 H         -2.8803766901       -1.5571996301       -1.8747715516
 H         -2.8396205908       -1.8368251419        1.7307989083
 H         -1.3443966112       -0.4688608725        3.1630095393
 H          0.2321240288        1.1247056882        2.1282540104
 H          0.4936866890        2.6235177593        0.0754811112
 C          0.4859203595        1.8912056403       -1.9324301892
 C         -0.5938876805        2.7926242205       -2.4492659389
 C          0.8376741995        3.2335884806       -2.4962767684
 H          1.3351255696        3.2756538212       -3.4536978283
 H          1.1642970292        3.9943449103       -1.8022730080
 H         -1.0807653203        2.5376395009       -3.3784950691
 H         -1.2420616907        3.2587595000       -1.7229723488
 H          0.7542219597        1.0208563707       -2.5197431996
