  62
        -98.93277071
 C         -1.8132340687       -0.7473728222        0.7921719682
 C         -2.1920502409        0.6110279145        0.6590599390
 C         -3.6249066177        0.9057035421        0.4677665456
 C         -4.4935968883       -0.1216064273        0.4380123950
 C         -5.9843761097       -0.0829198389        0.2276999593
 C         -6.3717529712        0.1664503323       -1.2381170158
 C         -5.5831360441        1.2751798375       -1.9294894510
 H         -5.8823727913        1.2886734965       -2.9809044342
 H         -4.5198155963        1.0308822115       -1.8988463824
 C         -5.7992652384        2.6769392217       -1.3639786940
 H         -6.8622503113        2.9233786074       -1.4129419387
 H         -5.2668520939        3.3739349757       -2.0161779337
 C         -5.3110046763        2.9038886046        0.0688400795
 H         -6.0115892378        2.4974630484        0.7934649591
 H         -5.2850443493        3.9846683158        0.2357791859
 C         -3.9047253901        2.3846698372        0.3506745533
 H         -3.5519087411        2.8238552649        1.2914762034
 H         -3.2200099787        2.7637831346       -0.4164583848
 H         -7.4382747665        0.3947893411       -1.2783056481
 H         -6.2037029698       -0.7589802402       -1.7945355051
 H         -6.4348179259        0.6610911338        0.8779976428
 H         -6.3671632669       -1.0613607700        0.5265684536
 O         -4.0864552118       -1.4150952485        0.5700253611
 C         -2.7576263258       -1.7729398465        0.7408821069
 O         -2.5795326822       -3.0009450644        0.8305901832
 O         -1.3591459986        1.5571801362        0.7030247640
 C         -0.3354081447       -1.0197272431        0.9978386027
 C          0.3846871417       -1.2715721188       -0.3017576333
 C         -0.1368126519       -2.1096547998       -1.2815957716
 C          0.5681887848       -2.3422526832       -2.4487675853
 C          1.8113737578       -1.7682117414       -2.6497307000
 C          2.3413110449       -0.9293267765       -1.6767966974
 C          1.6152893970       -0.6712200288       -0.5226427302
 H          2.0196941348        0.0014821139        0.2173539359
 N          3.5963480778       -0.3289224915       -1.8415625002
 S          4.6238492683       -0.1906514382       -0.5244477096
 O          5.9463716484       -0.1007761929       -1.1043508344
 O          4.4115812061       -1.2590700245        0.4228435669
 C          4.2018919868        1.3789513818        0.1997936806
 C          3.8643768569        1.4512003692        1.5365539474
 C          3.5477855989        2.6852943871        2.0821429647
 C          3.5762536062        3.8193272088        1.2855340801
 C          3.9218520640        3.7304546239       -0.0545817053
 C          4.2392800697        2.4998137838       -0.6057626920
 H          4.5157521119        2.3908705207       -1.6411701498
 H          3.9419926743        4.6155531473       -0.6698670762
 H          3.3259104473        4.7776329462        1.7125453390
 H          3.2766700544        2.7555195706        3.1234375947
 H          3.8486123831        0.5439940857        2.1206500001
 H          4.0898843491       -0.5943533983       -2.6812031224
 H          2.3673254688       -1.9671320727       -3.5534225099
 H          0.1523011759       -2.9925803894       -3.2037802136
 H         -1.0917101119       -2.5851153464       -1.1146986816
 H          0.0651999188       -0.0800193627        1.4115203448
 C         -0.0591029841       -2.1121565619        2.0220124624
 C          0.4026547892       -3.4884279681        1.6614459917
 C          1.3482834988       -2.5357127197        2.3260980718
 H          1.6191104686       -2.7140022106        3.3561888745
 H          2.1487776099       -2.1249298861        1.7269512429
 H          0.0040023356       -4.3154696083        2.2288198973
 H          0.5579687385       -3.7165115807        0.6187303967
 H         -0.7359388976       -2.0449993398        2.8685263231
