  62
        -98.92978095
 C         -2.1357539278        0.5957168059       -0.8855599660
 C         -2.5139377454        0.2651661144        0.4377312736
 C         -3.3367874219       -0.9511888190        0.6007277246
 C         -3.6458315297       -1.6978537615       -0.4744411716
 C         -4.4354762677       -2.9837770956       -0.6030947113
 C         -5.3357757635       -3.4650637909        0.5321699180
 C         -6.5458035081       -2.5752043246        0.8138450940
 H         -7.2342465544       -2.6451582553       -0.0321568715
 H         -7.0597652756       -2.9685225281        1.6936935850
 C         -6.2405199755       -1.0961512726        1.0380759227
 H         -5.8313858264       -0.6629648134        0.1229736344
 H         -7.1868212187       -0.5863861606        1.2385102747
 C         -5.2940864148       -0.7914489955        2.1979811884
 H         -5.2977142749        0.2915122292        2.3491023180
 H         -5.6699958356       -1.2562556176        3.1114050656
 C         -3.8316017012       -1.2244586036        1.9916586793
 H         -3.6869666761       -2.2702074738        2.2519192639
 H         -3.2041744481       -0.6299664137        2.6624012990
 H         -5.7122432015       -4.4473156688        0.2336182253
 H         -4.7549767540       -3.6131723849        1.4377730771
 H         -5.0357532678       -2.8719297381       -1.5116747785
 H         -3.6990459105       -3.7667312495       -0.8154160651
 O         -3.1886192947       -1.3799474396       -1.7220697426
 C         -2.4373761967       -0.2434326511       -1.9591982404
 O         -2.0941319332       -0.0987661491       -3.1501002838
 O         -2.1914320813        0.9388382949        1.4488244162
 C         -1.3248104911        1.8397995269       -1.2049293042
 C         -0.1639521695        1.9659274684       -0.2488582088
 C         -0.0277224835        3.0038775087        0.6623608964
 C          1.0659678638        3.0505634581        1.5091050398
 C          2.0430160070        2.0736984865        1.4648232248
 C          1.9201992225        1.0335174256        0.5524215014
 C          0.8261616933        0.9919458932       -0.2991975569
 H          0.7254927824        0.1800830229       -1.0102157209
 N          2.9011491027        0.0230903831        0.5072020318
 S          4.5149977226        0.5210055096        0.5678693960
 O          4.8661956780        0.7674569870        1.9438843647
 O          4.7298383372        1.6221502229       -0.3445831729
 C          5.3515331721       -0.9409960208       -0.0125756649
 C          5.5649094371       -1.9794932014        0.8740710035
 C          6.1988283972       -3.1257277958        0.4218522491
 C          6.6059754935       -3.2141248782       -0.9012377029
 C          6.3856062899       -2.1632005542       -1.7787671221
 C          5.7507133140       -1.0143278951       -1.3334922492
 H          5.5664282804       -0.1695814769       -1.9779219237
 H          6.7057939968       -2.2336270985       -2.8058434405
 H          7.1012404556       -4.1064078868       -1.2503175181
 H          6.3744867641       -3.9441952119        1.1011816313
 H          5.2403211385       -1.8620165634        1.8947435703
 H          2.7516876132       -0.6123535167       -0.2648667337
 H          2.8992021041        2.1031992299        2.1193408868
 H          1.1573983447        3.8587656510        2.2193400529
 H         -0.7900498877        3.7625679190        0.7280473931
 H         -0.9092216006        1.6552085240       -2.2096413551
 C         -2.1550350011        3.1104834084       -1.3112035848
 C         -3.5628700314        3.0645672443       -1.8240013530
 C         -3.2981016143        3.4105864876       -0.3910892722
 H         -3.4455263679        4.4336229158       -0.0768434686
 H         -3.5346105755        2.6833924709        0.3689591445
 H         -3.8916454157        3.8458572999       -2.4926649625
 H         -3.9801251473        2.0936204425       -2.0492442074
 H         -1.5545410853        3.9556575201       -1.6340746925
