  62
        -98.93916293
 C         -2.2353716962       -0.1286019759        0.2935091016
 C         -3.2746660037       -0.7036523501       -0.4789179932
 C         -4.4075387048        0.1808263651       -0.7857889669
 C         -4.3984654209        1.4598925781       -0.3720952229
 C         -5.4661887864        2.4870619339       -0.6342363918
 C         -6.6396130744        2.4337858554        0.3538475412
 C         -7.5830005456        1.2427808058        0.1804147869
 H         -7.9046494950        1.1842358211       -0.8598031549
 H         -8.4692632627        1.4460568297        0.7848143250
 C         -6.9884805382       -0.1043385199        0.6143303231
 H         -7.7174630330       -0.6452860270        1.2219442392
 H         -6.1134922447        0.0697135492        1.2449433437
 C         -6.5904842553       -1.0232438232       -0.5406838591
 H         -7.4814041524       -1.3126512304       -1.1023467245
 H         -6.1476202693       -1.9294726471       -0.1199999306
 C         -5.5769821805       -0.4093988149       -1.5152032691
 H         -6.0597040222        0.3463711354       -2.1340531631
 H         -5.1981598241       -1.2041012253       -2.1621686197
 H         -7.2183103286        3.3508741512        0.2214419915
 H         -6.2397919980        2.4373924183        1.3705729588
 H         -5.8404794350        2.3752724675       -1.6521852373
 H         -4.9850267520        3.4634261371       -0.5452065618
 O         -3.3681710874        1.9855885138        0.3433770167
 C         -2.2851939384        1.2060806665        0.7090724533
 O         -1.4380029105        1.8095918485        1.3999054551
 O         -3.2828975862       -1.8887319587       -0.9039714596
 C         -0.9979093295       -0.8960910427        0.7309340579
 C          0.0236790093       -0.9841610684       -0.3782345912
 C         -0.2209359796       -1.7081253432       -1.5408310417
 C          0.7461827576       -1.7959480573       -2.5249627481
 C          1.9767289460       -1.1841953106       -2.3635328707
 C          2.2263245943       -0.4491697145       -1.2105485668
 C          1.2475634160       -0.3476633725       -0.2317797649
 H          1.4514540906        0.2360956887        0.6546355934
 N          3.4550962715        0.2049481561       -1.0294193972
 S          4.0834924430        0.3201913861        0.5324057106
 O          3.8966199522       -0.9294019368        1.2349181845
 O          3.5446632972        1.4971037164        1.1669698053
 C          5.8110951479        0.5701881206        0.1680481170
 C          6.2471474839        1.8434271878       -0.1469162521
 C          7.5834027127        2.0349746473       -0.4604191117
 C          8.4559965950        0.9566740856       -0.4548084175
 C          8.0041158069       -0.3148314284       -0.1348999793
 C          6.6686804843       -0.5137348997        0.1786004689
 H          6.2738542280       -1.4818031510        0.4420074260
 H          8.6854992954       -1.1502329674       -0.1279742912
 H          9.4955354970        1.1091341048       -0.6983460924
 H          7.9388656930        3.0225467238       -0.7066086176
 H          5.5338688664        2.6511421040       -0.1285979453
 H          4.1558681852       -0.0755832515       -1.7016515629
 H          2.7357519680       -1.2665396444       -3.1267115167
 H          0.5442398455       -2.3591505656       -3.4236176675
 H         -1.1781072115       -2.1897132168       -1.6667551896
 H         -0.5503843418       -0.2999560789        1.5387406951
 C         -1.3078983193       -2.2779439644        1.2756929910
 C         -0.2659726774       -2.9738639416        2.0967868512
 C         -1.5137632143       -2.4579512354        2.7477438926
 H         -2.2538408985       -3.1698364743        3.0814291439
 H         -1.4363812832       -1.5812260520        3.3750314651
 H         -0.1491933495       -4.0407994960        1.9838431361
 H          0.6609628186       -2.4482648108        2.2777494397
 H         -1.9116249494       -2.8793456192        0.6093512212
