  62
        -98.93507012
 C         -2.2245569903       -1.2256609613        0.5451800587
 C         -2.1940926506       -0.2291854909       -0.4584819410
 C         -3.0460701609        0.9615053188       -0.2426510106
 C         -3.7667532809        1.0534100182        0.8896470794
 C         -4.7291818212        2.1345494478        1.3049706698
 C         -6.0699800012        2.0558217677        0.5581031698
 C         -5.9544625912        1.8210119282       -0.9454578803
 H         -5.4142579209        0.8894074784       -1.1227592106
 H         -6.9656417811        1.6896587981       -1.3392512603
 C         -5.2902286915        2.9495276087       -1.7307251299
 H         -5.3693031614        2.6966772290       -2.7910386900
 H         -5.8459479817        3.8755797885       -1.5680829396
 C         -3.8143070115        3.2057832889       -1.4157354699
 H         -3.4145624217        3.8370818593       -2.2147622997
 H         -3.6985695217        3.7693553987       -0.4935858397
 C         -2.9453609812        1.9525527192       -1.3771622703
 H         -1.8907486913        2.2558883494       -1.4052054502
 H         -3.1010247611        1.3796946594       -2.2986614405
 H         -6.6447754110        1.2286352274        0.9817737695
 H         -6.6210722714        2.9792589175        0.7436299501
 H         -4.2719246715        3.1113709480        1.1773791401
 H         -4.9165486911        1.9924451374        2.3717855997
 O         -3.7292784107        0.0862857379        1.8517582891
 C         -2.9598720604       -1.0526086018        1.7190321387
 O         -3.0025979201       -1.8196495322        2.7023691985
 O         -1.4977543206       -0.3106913004       -1.5032248811
 C         -1.3820320600       -2.4865824810        0.4488128982
 C          0.0172740299       -2.1308463305        0.0080980383
 C          0.6391336500       -2.6655717400       -1.1116145619
 C          1.9211255699       -2.2716415695       -1.4542710118
 C          2.6095782597       -1.3456562696       -0.6928134815
 C          1.9948080296       -0.8005538901        0.4269318787
 C          0.7152296897       -1.2037097506        0.7730012886
 H          0.2336323496       -0.7734647110        1.6440560488
 N          2.6864079293        0.1389862398        1.2134367190
 S          3.3940489390        1.4528150102        0.4416311994
 O          3.4626208387        2.4867925199        1.4526142797
 O          2.7061140988        1.7949629005       -0.7812212305
 C          5.0437351391        0.8858948508        0.0839983592
 C          5.8144670292        0.4293954906        1.1354104090
 C          7.1023030494       -0.0125108289        0.8785449089
 C          7.5955967693        0.0114743716       -0.4176429311
 C          6.8105337692        0.4760041217       -1.4616807810
 C          5.5208349791        0.9191634013       -1.2114809208
 H          4.8717348290        1.2836449614       -1.9919502407
 H          7.1959048792        0.4943301722       -2.4684615810
 H          8.5981529994       -0.3335606481       -0.6152965313
 H          7.7158560895       -0.3740660690        1.6879397087
 H          5.3935490093        0.4311110202        2.1269740390
 H          2.1651261193        0.4482277194        2.0212646791
 H          3.6040592396       -1.0300387993       -0.9628679514
 H          2.3896464800       -2.6893859791       -2.3323809019
 H          0.1105322002       -3.3686688199       -1.7337216721
 H         -1.3198890699       -2.8617092813        1.4842940381
 C         -2.0128833697       -3.5992795909       -0.3747129921
 C         -3.5013969197       -3.7052037413       -0.5157055321
 C         -2.6601583198       -3.3461179707       -1.7017081120
 H         -2.5354406996       -4.0833178304       -2.4814319623
 H         -2.6783402401       -2.3295596205       -2.0607664217
 H         -3.9506195994       -4.6862925614       -0.4786611024
 H         -4.1039847899       -2.9326369416       -0.0599744119
 H         -1.4759996995       -4.5363589308       -0.2644663224
