  62
        -98.94375415
 C         -1.4707589795       -1.2624450304        0.7085970766
 C         -2.5185574336       -1.1795078291       -0.2401853425
 C         -3.4177158228       -0.0219230587       -0.0984515877
 C         -3.1566675595        0.9131395665        0.8325184311
 C         -3.9583795816        2.1652479892        1.0401356892
 C         -3.4391100062        3.3258829588        0.1795297160
 C         -3.2313040170        2.9643294503       -1.2907507433
 H         -2.8825915814        3.8641008570       -1.8023207492
 H         -2.4358031204        2.2196836229       -1.3701738137
 C         -4.4821712280        2.4236041958       -1.9958640526
 H         -4.5758307272        2.9094606763       -2.9693768208
 H         -5.3734385683        2.6770411400       -1.4206598631
 C         -4.4530332435        0.9153934292       -2.2480989003
 H         -3.5180855507        0.6437753902       -2.7447412039
 H         -5.2692750078        0.6682895357       -2.9322125091
 C         -4.6157037102        0.0308516165       -1.0057924121
 H         -5.5014168474        0.3433658460       -0.4482675370
 H         -4.7727723237       -0.9949929468       -1.3518710110
 H         -2.4839736927        3.6644791139        0.5866904157
 H         -4.1488391568        4.1518532967        0.2533325647
 H         -3.8887905390        2.4456629616        2.0924699777
 H         -5.0004892395        1.9630149224        0.7989238981
 O         -2.0957539840        0.8378327659        1.6758814223
 C         -1.2432817448       -0.2505754306        1.6472504082
 O         -0.3312842281       -0.2111128668        2.4963392177
 O         -2.7218561467       -2.0167386271       -1.1577177023
 C         -0.4774868563       -2.4152162042        0.7526293812
 C          0.6306346946       -2.1216273418       -0.2282948220
 C          0.4605254225       -2.2678266944       -1.6007842316
 C          1.4783803430       -1.9252751291       -2.4733399955
 C          2.6812611439       -1.4291367119       -1.9998182919
 C          2.8545590604       -1.2702482259       -0.6321112317
 C          1.8358705252       -1.6193379136        0.2430726905
 H          1.9670748764       -1.4725576133        1.3070573197
 N          4.0694303852       -0.7299630354       -0.1472422626
 S          4.2827719634        0.9047340385       -0.4505238154
 O          4.3068704792        1.1090141858       -1.8757887035
 O          5.4721921290        1.2875310002        0.2746989250
 C          2.8490996654        1.6882588506        0.2631970011
 C          2.9226740901        2.1691127254        1.5549724278
 C          1.7866639775        2.7070597434        2.1363836515
 C          0.5994815452        2.7444696999        1.4229108634
 C          0.5419583403        2.2544022572        0.1283309473
 C          1.6741866694        1.7167685081       -0.4605599191
 H          1.6621146664        1.3242000428       -1.4649350757
 H         -0.3860327762        2.2765906507       -0.4210974562
 H         -0.2905821822        3.1429436430        1.8838449527
 H          1.8243571705        3.0839193537        3.1457809459
 H          3.8661114030        2.1200429563        2.0752154058
 H          4.1997232771       -0.8894111782        0.8428607832
 H          3.4759105427       -1.1383119193       -2.6673918919
 H          1.3332905433       -2.0429162083       -3.5366823594
 H         -0.4852445526       -2.6241952638       -1.9783429082
 H         -0.0417451401       -2.3905487103        1.7605418190
 C         -1.1037202989       -3.7772367396        0.5406049195
 C         -0.3402363959       -4.9933665453        0.9680191270
 C         -1.5565138620       -4.5648856106        1.7315065891
 H         -2.4560204272       -5.1557749431        1.6457817809
 H         -1.4167437553       -4.1240423137        2.7080878433
 H         -0.4016991165       -5.8810771170        0.3575723754
 H          0.6254770321       -4.8423569240        1.4268768281
 H         -1.7059310298       -3.8490637398       -0.3543137770
