  62
        -98.95135751
 C         -2.3412945456       -0.0544850378        0.1142024213
 C         -1.6114917183        0.5028287422       -0.9621566816
 C         -1.4278183080        1.9584961841       -0.9253808349
 C         -1.8595915048        2.6562866173        0.1407463885
 C         -1.7459059449        4.1443015618        0.3325845459
 C         -0.3765678309        4.5988017622        0.8558204092
 C          0.7497880643        4.5892081808       -0.1781564890
 H          0.4229380341        5.1164049731       -1.0756422003
 H          1.5798369949        5.1547316081        0.2501482827
 C          1.2549868094        3.1894995043       -0.5548199606
 H          2.3483152680        3.1927030783       -0.5753437483
 H          0.9607000598        2.4709649509        0.2142382769
 C          0.7822823136        2.6884466567       -1.9186691381
 H          1.1843235295        3.3341358336       -2.7032477551
 H          1.1880047723        1.6858598509       -2.0657749983
 C         -0.7410355330        2.6194885344       -2.0842352678
 H         -1.1450682199        3.6219563294       -2.2287514369
 H         -0.9579160721        2.0243054446       -2.9750776513
 H         -0.4914864888        5.6197205987        1.2282389712
 H         -0.0963004456        3.9642286533        1.7005335444
 H         -1.9669033419        4.6554638550       -0.6052099291
 H         -2.5056652349        4.4206029335        1.0670480653
 O         -2.4900606410        2.0718108313        1.1941401846
 C         -2.7506896957        0.7123778151        1.2040648855
 O         -3.3517886206        0.3098054671        2.2229455008
 O         -1.1470125742       -0.1776561120       -1.9146873380
 C         -2.6243135389       -1.5468398432        0.1526355820
 C         -1.3205152910       -2.3067856240        0.1925407198
 C         -1.0479231116       -3.4224978620       -0.5888997456
 C          0.1848293324       -4.0482273812       -0.5094605057
 C          1.1755029537       -3.5630237203        0.3250928685
 C          0.9085866299       -2.4516031918        1.1162974184
 C         -0.3406442378       -1.8557226582        1.0674827290
 H         -0.5377953387       -0.9969459887        1.6925432173
 N          1.8894043145       -1.8886961804        1.9601342388
 S          2.3499741518       -0.3109142504        1.6235016359
 O          3.4267113092       -0.0292909937        2.5484641643
 O          1.2069656656        0.5617493673        1.6908695661
 C          3.0045448329       -0.3965860161       -0.0341082506
 C          4.3761401694       -0.3863293917       -0.2036668973
 C          4.8984205800       -0.5316015891       -1.4783219695
 C          4.0440689342       -0.6996418612       -2.5580158624
 C          2.6710979009       -0.7145681702       -2.3706284391
 C          2.1402340931       -0.5602590691       -1.0983722469
 H          1.0733340600       -0.5595370541       -0.9385718877
 H          1.9960379627       -0.8432020592       -3.2018798231
 H          4.4485327408       -0.8189466759       -3.5506856656
 H          5.9664077687       -0.5176670467       -1.6249502473
 H          4.9996761055       -0.2573568679        0.6662925192
 H          2.7177981311       -2.4601635358        2.0588351724
 H          2.1459894513       -4.0342172805        0.3646806149
 H          0.3834232405       -4.9143723408       -1.1218384858
 H         -1.7984032555       -3.7985226883       -1.2646245240
 H         -3.1518886611       -1.7292689681        1.1007553711
 C         -3.5255607228       -1.9475807737       -0.9963643761
 C         -4.4542130433       -3.1150273894       -0.8547035083
 C         -5.0008907739       -1.7200153029       -0.8702039701
 H         -5.5480362793       -1.3872927969       -1.7393596364
 H         -5.3590213307       -1.2980383048        0.0579613311
 H         -4.6314723383       -3.7414564699       -1.7158512175
 H         -4.4511332048       -3.6455799751        0.0855300413
 H         -3.0727794609       -1.7649689547       -1.9638290547
