  62
        -98.94756356
 C          0.8091551008        1.1577097846        0.5990057620
 C          1.2776577232        0.7748862236       -0.6809450076
 C          2.1983083743       -0.3682901122       -0.7027054904
 C          2.5051011895       -1.0023370877        0.4430500262
 C          3.4668356665       -2.1503141766        0.5868899824
 C          4.9338895475       -1.7119770514        0.7028418571
 C          5.5682992989       -1.2186293129       -0.5984012013
 H          6.6450409093       -1.1599650631       -0.4269148856
 H          5.4038989512       -1.9564306078       -1.3842037659
 C          5.0700466775        0.1551477046       -1.0684148166
 H          4.5844711489        0.6716309722       -0.2370512256
 H          5.9233403033        0.7674100427       -1.3692946614
 C          4.1053273830        0.1106315925       -2.2537388557
 H          4.6212169757       -0.2854448807       -3.1312029153
 H          3.7949462735        1.1340017987       -2.4790993991
 C          2.8407743899       -0.7240400169       -2.0091657813
 H          2.1236340678       -0.4992837730       -2.8020823745
 H          3.0787880524       -1.7863984048       -2.0405726128
 H          5.0087462878       -0.9320802095        1.4641915881
 H          5.5051615143       -2.5742530966        1.0544442510
 H          3.1925443140       -2.6779836464        1.5020106936
 H          3.3616939321       -2.8293007877       -0.2583466625
 O          1.9585595861       -0.6587882224        1.6405197721
 C          1.1197525650        0.4381945908        1.7515041051
 O          0.7184370687        0.6640600252        2.9126190982
 H         -1.5958271166        0.2447870240        0.4365401355
 C         -1.9655944119        1.0641919981       -0.1628786191
 C         -1.2886260846        2.2766357647       -0.1380956739
 C         -1.7815639028        3.3291929038       -0.8984772380
 C         -2.9156576926        3.1591809196       -1.6734102972
 C         -3.5836599168        1.9492813777       -1.6987746181
 C         -3.1019597890        0.8912147695       -0.9350904373
 N         -3.7333664660       -0.3580684678       -0.9638483696
 S         -3.6271850216       -1.4215255206        0.3123268174
 O         -4.6577480841       -2.4022516004        0.0414695887
 O         -3.7244969253       -0.7491131677        1.5873713981
 C         -2.0394813826       -2.2037804808        0.1298631078
 C         -1.6253508033       -2.5838693637       -1.1309756268
 C         -0.4239580917       -3.2602999260       -1.2637703863
 C          0.3323089613       -3.5534114004       -0.1397881440
 C         -0.0928548459       -3.1579313355        1.1184521016
 C         -1.2898273943       -2.4744951846        1.2569186056
 H         -1.6484190950       -2.1366558930        2.2171967645
 H          0.5002535631       -3.3728153790        1.9931033780
 H          1.2570643249       -4.0978903590       -0.2420502485
 H         -0.0833289335       -3.5608536954       -2.2413800203
 H         -2.2420394315       -2.3456719383       -1.9815199009
 H         -4.6132352581       -0.4019864277       -1.4548591079
 H         -4.4662858698        1.8178163112       -2.3056773630
 H         -3.2863392848        3.9826064880       -2.2649041675
 H         -1.2762543589        4.2809306122       -0.8894812740
 C         -0.0670965220        2.3880911929        0.7404761871
 H         -0.4053416307        2.4056520658        1.7877712525
 C          0.7556203610        3.6325815291        0.4713015272
 C          0.4425883270        4.9179572812        1.1746176936
 C          1.6686582777        4.1401473658        1.5450876831
 H          2.6346507296        4.5300448598        1.2610317269
 H          1.6729946878        3.6043505729        2.4836196864
 H          0.5701729936        5.8457689194        0.6374857917
 H         -0.3836651534        4.9194587676        1.8696123908
 H          1.1119781873        3.6800933330       -0.5515450674
 O          0.9585449278        1.3641978745       -1.7453841844
