  62
        -98.93677804
 C         -1.6445352905       -0.8932994097       -0.2372173800
 C         -2.8651263801       -1.2539655964        0.3857707630
 C         -4.0974019677       -0.7080901421       -0.2051383270
 C         -4.0106719538        0.0959654131       -1.2783725756
 C         -5.1251889786        0.7366996181       -2.0677312391
 C         -6.2983800581        1.3376495585       -1.2823995080
 C         -5.9235078946        1.9516249203        0.0743297122
 H         -4.8384614206        2.0331885043        0.1611770236
 H         -6.3308690563        2.9628341761        0.1308832026
 C         -6.4726403951        1.1567852726        1.2614683464
 H         -6.4995529326        1.8087755192        2.1378636718
 H         -7.5013126872        0.8636098855        1.0406084734
 C         -5.6695333187       -0.0851007749        1.6456224705
 H         -6.2223614147       -0.6151623213        2.4248437705
 H         -4.7112569164        0.2137061496        2.0789800325
 C         -5.3760789079       -1.0645663108        0.4974333382
 H         -5.2141127758       -2.0539774181        0.9334901883
 H         -6.2125544759       -1.1232011714       -0.1945578322
 H         -7.0625981430        0.5770158492       -1.1292179658
 H         -6.7424678832        2.1046889031       -1.9192831873
 H         -5.5098716073       -0.0048638174       -2.7741388704
 H         -4.6403178136        1.5189657364       -2.6569966171
 O         -2.8146194169        0.4233219372       -1.8437955042
 C         -1.6082634290       -0.0488361974       -1.3455957895
 O         -0.6130585023        0.3484211367       -1.9801809867
 O         -2.9252960626       -2.0140365580        1.3886113656
 C         -0.3577059918       -1.4332192354        0.3662152269
 C          0.3321700674       -0.3205682205        1.1168178776
 C         -0.0534316411       -0.0642682337        2.4306586758
 C          0.5234541762        0.9651692242        3.1489226630
 C          1.5052512438        1.7524675435        2.5746398986
 C          1.8901272241        1.5128889157        1.2596291414
 C          1.3071449252        0.4790298765        0.5373068550
 H          1.5887755891        0.3380013282       -0.4929779916
 N          2.8694276388        2.3145312003        0.6665713841
 S          3.7899310339        1.8447684638       -0.6339107967
 O          4.9340218095        2.7331808392       -0.5785084989
 O          3.0304548815        1.8871745224       -1.8573130799
 C          4.3373198974        0.1778403555       -0.3082379838
 C          4.7639374709       -0.1653732170        0.9591365124
 C          5.2471230990       -1.4452306334        1.1794951815
 C          5.3084619029       -2.3520348843        0.1330229455
 C          4.8798301893       -1.9909294861       -1.1350030040
 C          4.3857812286       -0.7154622059       -1.3587505529
 H          4.0293568419       -0.3960024249       -2.3253885882
 H          4.9295677372       -2.6951456404       -1.9507101302
 H          5.6896956070       -3.3460963529        0.3055326229
 H          5.5774538577       -1.7299539366        2.1653301568
 H          4.7161544545        0.5603873019        1.7541543545
 H          3.3446117682        2.9629156966        1.2749684686
 H          1.9623456264        2.5560194164        3.1315371207
 H          0.2134882871        1.1526572563        4.1657405662
 H         -0.8244216191       -0.6777833266        2.8748240271
 H         -0.6856919775       -2.1781548722        1.1045442467
 C          0.5286621516       -2.1244233317       -0.6461853613
 C          1.5590412496       -3.0958639718       -0.1566042258
 C          0.3463052469       -3.5928893056       -0.8827743591
 H          0.4624834571       -3.9694293632       -1.8879353830
 H         -0.4205018095       -4.0986674079       -0.3142049946
 H          2.5126096784       -3.1309417350       -0.6593444792
 H          1.6158696473       -3.2636501041        0.9081734806
 H          0.7716208268       -1.5118241380       -1.5053409328
