  62
        -98.94017365
 C         -1.7719628893        0.8672653515       -0.7515898200
 C         -2.0767642700       -0.4651180091       -0.3775718929
 C         -3.5095666534       -0.7814462176       -0.2682810038
 C         -4.4320754954        0.1444402161       -0.5828023226
 C         -5.9249887719       -0.0357336120       -0.5338955836
 C         -6.5329005772        0.1840461743        0.8582207640
 C         -6.2517806806       -0.9243304602        1.8737000975
 H         -6.5234561340       -1.8883721978        1.4425366061
 H         -6.9108550659       -0.7516738204        2.7268289497
 C         -4.8013271489       -0.9733909741        2.3743513991
 H         -4.7939335242       -1.0840141210        3.4610741924
 H         -4.3042613103       -0.0274586026        2.1469029806
 C         -3.9703594637       -2.1198833112        1.7975478054
 H         -4.3826851251       -3.0751758640        2.1302300604
 H         -2.9531847293       -2.0396680426        2.1909444676
 C         -3.8864829720       -2.1303653705        0.2654339492
 H         -4.8341036574       -2.4589875884       -0.1609259154
 H         -3.1048350343       -2.8346284687       -0.0307543198
 H         -7.6149447823        0.2650304467        0.7319790317
 H         -6.1719954054        1.1375233530        1.2507824699
 H         -6.1866588396       -1.0311199465       -0.8938033725
 H         -6.3496947089        0.7040149835       -1.2158921987
 O         -4.0965925187        1.3880293656       -1.0181361731
 C         -2.7705321080        1.7826442441       -1.0960188188
 O         -2.6107988089        2.9533047630       -1.4949403734
 O         -1.2172100477       -1.3538232253       -0.1462678355
 C         -0.3399608609        1.3642429531       -0.8497619105
 C          0.5288495183        0.3400839348       -1.5361318216
 C          0.2554840543        0.0145599863       -2.8621280075
 C          1.0237206747       -0.9178037044       -3.5313433918
 C          2.0935869707       -1.5279173284       -2.9009000458
 C          2.3801395562       -1.2041779979       -1.5793551685
 C          1.5976353896       -0.2763443315       -0.9052559474
 H          1.7979698305       -0.0822729302        0.1340531238
 N          3.4899217546       -1.7673324963       -0.9479350238
 S          3.8933934807       -1.5759187337        0.6491167097
 O          5.1212908317       -2.3319650826        0.7836987480
 O          2.8300526469       -1.9502681244        1.5505242762
 C          4.2459749607        0.1636547890        0.8065672205
 C          4.9617757911        0.7979968791       -0.1890427784
 C          5.2365926195        2.1498895676       -0.0578734169
 C          4.7970931815        2.8409747503        1.0609504223
 C          4.0858762044        2.1883820474        2.0559938571
 C          3.8085105590        0.8365893647        1.9297928598
 H          3.2512093124        0.2895170458        2.6741063329
 H          3.7443053538        2.7264559388        2.9259797878
 H          5.0076973991        3.8943643820        1.1581191585
 H          5.7893772608        2.6612708833       -0.8293798100
 H          5.2870102642        0.2333952554       -1.0467876581
 H          3.9611027393       -2.5214662117       -1.4197613680
 H          2.6968943577       -2.2548613264       -3.4225841979
 H          0.7913476930       -1.1713218173       -4.5549055103
 H         -0.5809586284        0.4921784694       -3.3548371959
 H         -0.3906493898        2.2505746589       -1.5039606555
 C          0.2364060677        1.8371087161        0.4773276861
 C         -0.6386409779        2.4732591188        1.5144404135
 C         -0.0381358505        1.1244597825        1.7655950183
 H          0.7608811122        1.0413825026        2.4874856629
 H         -0.6776721577        0.2562654995        1.7314721703
 H         -0.2525242577        3.3197457381        2.0616092414
 H         -1.6974107929        2.5337822047        1.3080075453
 H          1.2282873642        2.2639252135        0.3593601883
