  62
        -98.94243274
 C         -1.9740867985       -0.7880950922        0.5008620596
 C         -1.5151053895        0.3479488881        1.2068569497
 C         -2.0696073610        1.6513091376        0.8057701202
 C         -2.9389061115        1.7061208270       -0.2177372395
 C         -3.7019180729        2.8880133263       -0.7662568689
 C         -2.9971303244        4.2457288670       -0.8310038489
 C         -1.5201889545        4.1842090087       -1.2456778194
 H         -1.2689771435        3.1840274091       -1.6057835997
 H         -1.3514029855        4.8784065791       -2.0713074193
 C         -0.5633672445        4.5542638295       -0.1112140596
 H          0.3997697251        4.8342143506       -0.5452244599
 H         -0.9549546752        5.4253905789        0.4194313207
 C         -0.2970333629        3.4269555695        0.8831097100
 H          0.3783710070        3.8064096001        1.6542858199
 H          0.2223402278        2.6174193102        0.3626501096
 C         -1.5479834420        2.8403203780        1.5616054603
 H         -1.2568121313        2.4645550881        2.5464193301
 H         -2.3141843428        3.6001240372        1.6969750507
 H         -3.0793492446        4.7488972167        0.1311565013
 H         -3.5526648953        4.8503731066       -1.5504204785
 H         -4.6195754628        2.9916083052       -0.1782582586
 H         -4.0013503229        2.5871255462       -1.7736715289
 O         -3.3103113705        0.5912401167       -0.9103228596
 C         -2.8268825791       -0.6681703728       -0.5944363201
 O         -3.2381968884       -1.5725983031       -1.3468511201
 O         -0.6869797691        0.2765646688        2.1553769694
 C         -1.4195955570       -2.1558728117        0.8706627391
 C         -0.4853396169       -2.5761220904       -0.2371062513
 C         -0.6997118460       -3.6587231005       -1.0779518115
 C          0.1655419639       -3.8978761293       -2.1328746719
 C          1.2374252529       -3.0603865481       -2.3799306120
 C          1.4679850520       -1.9800792480       -1.5327284319
 C          0.6270096522       -1.7715160292       -0.4543076915
 H          0.8017363915       -0.9357729792        0.2031392486
 N          2.5467713610       -1.1134242268       -1.7459810220
 S          2.5084218495        0.4958701430       -1.2768869317
 O          1.1640689989        1.0183204416       -1.2272081011
 O          3.4100728984        1.1507792642       -2.2030885118
 C          3.2818971901        0.4675889435        0.3280593481
 C          2.5624737902        0.6647503024        1.4885041384
 C          3.2278519307        0.6094415029        2.7046291081
 C          4.5901142710        0.3605573843        2.7421077476
 C          5.3006318608        0.1685017553        1.5661883773
 C          4.6426388003        0.2223372749        0.3494802175
 H          5.1569902701        0.0925945157       -0.5881328827
 H          6.3611558410       -0.0231358535        1.5955478769
 H          5.0994212614        0.3173267346        3.6919622674
 H          2.6663521709        0.7575716920        3.6132724484
 H          1.4994244400        0.8487708613        1.4509833188
 H          3.0390459309       -1.2451226561       -2.6165070222
 H          1.8889563528       -3.2332185072       -3.2231320723
 H         -0.0116576655       -4.7385030493       -2.7868628120
 H         -1.5515000953       -4.3002198414       -0.9238811314
 H         -0.8221127068       -1.9932576312        1.7790738289
 C         -2.5167758258       -3.1506134629        1.1747378092
 C         -2.2023710642       -4.3750063728        1.9799947788
 C         -3.0216374952       -3.2733969338        2.5801468394
 H         -4.0773480749       -3.4386622049        2.7343782897
 H         -2.5644914556       -2.6455759935        3.3308861894
 H         -2.6955395333       -5.3005309132        1.7249684188
 H         -1.1866076940       -4.4967213718        2.3242882385
 H         -3.2437646960       -3.2354887235        0.3759158195
