  62
        -98.94462376
 C         -2.6678112730       -1.2936196952        0.1244009896
 C         -2.5588290684       -0.2957351525       -0.8746374503
 C         -3.5349719270        0.7986686436       -0.7900562738
 C         -4.4763798762        0.7885611829        0.1706812467
 C         -5.5543411082        1.8193084547        0.3682662117
 C         -5.1040482914        3.0435453507        1.1769632229
 C         -4.1627925335        3.9982686737        0.4414527640
 H         -4.5988053473        4.2683541405       -0.5207801038
 H         -4.0999419262        4.9101736058        1.0383933701
 C         -2.7442391592        3.4505642419        0.2290180009
 H         -2.0116531033        4.2170709370        0.4920432175
 H         -2.5724648113        2.6054588490        0.9001186002
 C         -2.4401681509        3.0116737843       -1.2036286532
 H         -2.4739526613        3.8788391658       -1.8673442274
 H         -1.4226372388        2.6105579655       -1.2284336354
 C         -3.3918562465        1.9395605399       -1.7513836781
 H         -2.9661700349        1.5449362065       -2.6772840271
 H         -4.3646828294        2.3784282167       -1.9720952064
 H         -6.0026867192        3.5978886460        1.4567915067
 H         -4.6256846416        2.6983195871        2.0963505031
 H         -5.9357246574        2.1417611099       -0.6008288791
 H         -6.3608361401        1.3245160298        0.9135480578
 O         -4.5671954603       -0.2061395205        1.0925870300
 C         -3.6503428915       -1.2429407239        1.1163048807
 O         -3.8184556556       -2.0534417152        2.0491483592
 O         -1.7036989836       -0.3091907437       -1.7992546826
 C         -1.6777032960       -2.4458744847        0.2001299254
 C         -0.3308511953       -1.8646928785        0.5549829827
 C         -0.0629253354       -1.5404942363        1.8823736180
 C          1.1278499273       -0.9336902751        2.2336509274
 C          2.0719181076       -0.6262835854        1.2685482171
 C          1.8062275495       -0.9297392118       -0.0591802204
 C          0.6194508610       -1.5627712307       -0.4068662539
 H          0.4219316431       -1.7817511154       -1.4439633042
 N          2.7512926626       -0.6097332271       -1.0486227145
 S          3.4390289972        0.9211519955       -1.0271193240
 O          2.5629475395        1.9002788649       -0.4267535494
 O          3.8471202936        1.1716601299       -2.3925298124
 C          4.8961089359        0.7070106975       -0.0240767409
 C          5.7677787621       -0.3134772793       -0.3506657325
 C          6.9108539276       -0.4874210414        0.4128975192
 C          7.1640085928        0.3590671842        1.4821037796
 C          6.2813733689        1.3813646118        1.7948327722
 C          5.1353277353        1.5599609992        1.0353924838
 H          4.4176288418        2.3372969227        1.2451382938
 H          6.4796344641        2.0389499692        2.6259941982
 H          8.0543011243        0.2213854973        2.0751737793
 H          7.5994153805       -1.2815087542        0.1729322657
 H          5.5358185048       -0.9475026264       -1.1899382106
 H          2.4491471917       -0.8490901148       -1.9823750980
 H          2.9962600701       -0.1392415306        1.5330932263
 H          1.3230869424       -0.6919749297        3.2674848863
 H         -0.8113329710       -1.7579922426        2.6322444642
 H         -2.0101330700       -3.0745272533        1.0366451501
 C         -1.6789256399       -3.2783161769       -1.0645215208
 C         -1.0384720253       -4.6328837871       -1.0492193771
 C         -2.5298276084       -4.5094824438       -1.1269419528
 H         -3.0205167901       -4.7484819348       -2.0585937057
 H         -3.1115656438       -4.7592277938       -0.2516352137
 H         -0.5035505029       -4.9616978602       -1.9270548670
 H         -0.6057785633       -4.9667756283       -0.1183314538
 H         -1.6008925354       -2.6880020781       -1.9689659675
