  62
        -98.94015211
 C         -2.4346157525       -0.8672449476        0.1057938615
 C         -2.7129015132        0.5187960089        0.1787545925
 C         -4.1029664192        0.8739081471        0.5011343773
 C         -4.9997658910       -0.1045851877        0.7229942296
 C         -6.4559832180        0.1147717802        1.0125427291
 C         -7.2849575370        0.1185405161       -0.2793898802
 C         -6.7186697378        1.0244787971       -1.3726611952
 H         -5.7582154651        0.6240544471       -1.7053659095
 H         -7.4005112938        0.9722446264       -2.2242317218
 C         -6.5373091353        2.4894633292       -0.9514734892
 H         -6.9149903252        3.1323795019       -1.7492859695
 H         -7.1319274790        2.6953527243       -0.0608089361
 C         -5.0858467735        2.9011834204       -0.6976120439
 H         -4.4677372200        2.6108260085       -1.5510113971
 H         -5.0495376181        3.9913552508       -0.6238290313
 C         -4.4438190164        2.3357310706        0.5756908449
 H         -5.0878690635        2.5385620047        1.4337456363
 H         -3.4931206341        2.8552123689        0.7280683680
 H         -7.3257779511       -0.9017886363       -0.6674767625
 H         -8.3020898954        0.4306481032       -0.0358273189
 H         -6.8041449178       -0.6960769036        1.6545213966
 H         -6.5779444655        1.0597934809        1.5380640159
 O         -4.6878827515       -1.4250312143        0.6639912204
 C         -3.4051626301       -1.8390903740        0.3468160221
 O         -3.2547351180       -3.0778231000        0.3201853467
 O         -1.8478217434        1.4132414060       -0.0120188832
 C         -1.0351691406       -1.3389643828       -0.2396897723
 C         -0.0254312406       -0.7965538435        0.7432064051
 C         -0.3165139645       -0.8235158756        2.1049528011
 C          0.5959631789       -0.3594590026        3.0321028764
 C          1.8293363873        0.1189471665        2.6257225517
 C          2.1332193405        0.1434217260        1.2704682389
 C          1.2065723975       -0.3072479836        0.3398473441
 H          1.4713462377       -0.2740494552       -0.7036604583
 N          3.3703550481        0.6317734057        0.8202438539
 S          4.0818241206       -0.1131196843       -0.5180706533
 O          3.5601731662        0.4862832252       -1.7203814148
 O          3.9549265639       -1.5489641197       -0.4114212824
 C          5.7838076415        0.3723604709       -0.2948809637
 C          6.1780659100        1.6306845655       -0.7093535096
 C          7.4939360919        2.0184768710       -0.5130013749
 C          8.3885663207        1.1474229989        0.0911685778
 C          7.9787489531       -0.1125673471        0.5005250956
 C          6.6637853717       -0.5063824216        0.3083759471
 H          6.3022999465       -1.4788717551        0.6018377835
 H          8.6772622437       -0.7887877454        0.9665197338
 H          9.4125503338        1.4513400505        0.2406490621
 H          7.8171381209        2.9961441508       -0.8322871810
 H          5.4503455988        2.2693644459       -1.1823574750
 H          4.0340752291        0.7747992172        1.5690370695
 H          2.5454466338        0.4750560589        3.3506616704
 H          0.3496948535       -0.3802345541        4.0832396572
 H         -1.2741311613       -1.2116517093        2.4259531658
 H         -1.0472219849       -2.4349242177       -0.1357842951
 C         -0.7113624745       -0.9937857666       -1.6788552089
 C          0.2332013039       -1.8473240720       -2.4687017400
 C         -1.2332800511       -1.8700750781       -2.7760140740
 H         -1.5769832641       -1.4063120556       -3.6884190382
 H         -1.8033389677       -2.7405793128       -2.4846853825
 H          0.9035724460       -1.3642623719       -3.1644890236
 H          0.6656724392       -2.7045592008       -1.9740938624
 H         -0.6974393116        0.0762757867       -1.8556746002
