  62
        -98.94304385
 C          2.6412942592        1.1911711200        0.2503801177
 C          2.7690333426        0.3261211175       -0.8634638072
 C          3.7977428040       -0.7169910910       -0.7493624262
 C          4.5631086161       -0.7955877404        0.3533966502
 C          5.6655735402       -1.7884373422        0.6027392802
 C          5.1794499369       -3.1392883968        1.1454773844
 C          4.4562086577       -4.0259151572        0.1310041897
 H          5.0709758765       -4.1284023765       -0.7637952782
 H          4.3658663560       -5.0172917432        0.5793029084
 C          3.0559338573       -3.5312768610       -0.2576936028
 H          2.7076572095       -2.8043043907        0.4798420283
 H          2.3549387446       -4.3687004309       -0.2363705691
 C          2.9692090424       -2.9042260027       -1.6492287320
 H          1.9442527698       -2.5577774463       -1.8052928450
 H          3.1871485425       -3.6605094386       -2.4067277003
 C          3.9109663531       -1.7123274672       -1.8649922290
 H          4.9394752631       -2.0588314578       -1.9624719481
 H          3.6217465317       -1.2094876251       -2.7911542044
 H          4.5256946067       -2.9569007196        2.0014610328
 H          6.0574742302       -3.6794893243        1.5068553621
 H          6.3266394675       -1.3369477120        1.3456070772
 H          6.2317068759       -1.9460896466       -0.3157199624
 O          4.4260397632        0.0663933490        1.3946786171
 C          3.4625085100        1.0582779949        1.3762883394
 O          3.4396771260        1.7617836650        2.4058817242
 O          2.0765877612        0.3970963709       -1.9151507391
 C          1.6312706058        2.3268919731        0.3200863747
 C          0.2449704916        1.8216414983        0.6443376360
 C         -0.3894217815        2.1960267758        1.8231607836
 C         -1.6661384030        1.7454817846        2.1096741044
 C         -2.3337663036        0.9108050429        1.2313593177
 C         -1.7083080976        0.5296587974        0.0514752195
 C         -0.4308957773        0.9894825838       -0.2365992911
 H          0.0543040943        0.6849942525       -1.1522425985
 N         -2.3636744061       -0.3393175508       -0.8373352244
 S         -3.9444295959        0.0052896660       -1.2796236844
 O         -4.1338159574       -0.6491369209       -2.5557267545
 O         -4.2103263247        1.4247965209       -1.2402772094
 C         -4.9236399840       -0.8327442972       -0.0507611065
 C         -5.8864893409       -0.1380689976        0.6547309539
 C         -6.6463647176       -0.8148711572        1.5962455326
 C         -6.4318664766       -2.1672874030        1.8131220795
 C         -5.4622571816       -2.8510234254        1.0945601258
 C         -4.6999601803       -2.1805711315        0.1514643656
 H         -3.9388430685       -2.6751468245       -0.4288970623
 H         -5.2980221573       -3.9026545722        1.2663641541
 H         -7.0235804901       -2.6920016926        2.5465238656
 H         -7.4006801656       -0.2852702385        2.1556944333
 H         -6.0140700321        0.9141603703        0.4560580043
 H         -1.8073364028       -0.5791615479       -1.6454667340
 H         -3.3277413595        0.5559445732        1.4499977640
 H         -2.1463912947        2.0452489304        3.0286380795
 H          0.1304790818        2.8370293092        2.5204262901
 H          1.9587446795        2.9586586105        1.1564548357
 C          1.6132460086        3.1756086327       -0.9374539642
 C          1.0878937815        4.5760551760       -0.8604525598
 C          2.5545747621        4.3345820020       -1.0532705665
 H          2.9928670816        4.5478970386       -2.0166675144
 H          3.2165829175        4.5253165499       -0.2208845279
 H          0.5139188737        4.9569590025       -1.6913756810
 H          0.7557041690        4.9333911907        0.1025715542
 H          1.4100258571        2.6105825966       -1.8375446000
