  62
        -98.94009152
 C          2.2176067453        0.8247927500        0.5829752831
 C          2.3604890392       -0.0241874274       -0.5426445164
 C          3.3327990624       -1.1172918199       -0.3932246912
 C          3.9524364621       -1.3124838945        0.7838099879
 C          4.9535898435       -2.3922698973        1.0924632186
 C          6.3895944975       -2.0462089525        0.6749485780
 C          6.6534345714       -2.0725501181       -0.8311714851
 H          6.3136334707       -3.0240052215       -1.2413995478
 H          7.7358242421       -2.0271395833       -0.9667645888
 C          6.0100847864       -0.9154230306       -1.6082598638
 H          6.7397732528       -0.4933249118       -2.3028118919
 H          5.7338873026       -0.1188724635       -0.9133327687
 C          4.7799920080       -1.3076267334       -2.4270475601
 H          5.0715652128       -2.0071982553       -3.2133950467
 H          4.3870423382       -0.4075693340       -2.9067532011
 C          3.6487408442       -1.9401858440       -1.6054928296
 H          3.9156239277       -2.9568165946       -1.3177845388
 H          2.7499015517       -1.9746763755       -2.2259631880
 H          7.0511406271       -2.7735946458        1.1511219432
 H          6.6408571741       -1.0598369601        1.0720976667
 H          4.6484558319       -3.3236018496        0.6145165523
 H          4.9339658147       -2.5341346342        2.1752922767
 O          3.7102759595       -0.5343165846        1.8735527550
 C          2.8598345309        0.5568370488        1.7941100763
 O          2.7450331317        1.1922302700        2.8624678821
 O          1.7213747457        0.1101146368       -1.6164046303
 C          1.2946349014        2.0303137141        0.5585145624
 C         -0.0430829356        1.6533284981       -0.0311218959
 C         -0.6323737795        2.3149698520       -1.0995095845
 C         -1.8765672697        1.9251972360       -1.5645195140
 C         -2.5576662655        0.8744719328       -0.9793329234
 C         -1.9783389155        0.2055921751        0.0912810138
 C         -0.7370057587        0.6032944914        0.5597153040
 H         -0.2868225915        0.0827858316        1.3980052523
 N         -2.6672106248       -0.8719936943        0.6869752264
 S         -4.1600383245       -0.5124196241        1.3758276332
 O         -4.1978744749        0.8473847905        1.8649299961
 O         -4.3887588945       -1.5528900217        2.3550312289
 C         -5.3154050060       -0.7087803717        0.0361363640
 C         -6.0848684462        0.3642292577       -0.3690865809
 C         -6.9826663214        0.1888185149       -1.4106264501
 C         -7.0947586369       -1.0496396092       -2.0239613199
 C         -6.3164812199       -2.1178441434       -1.6029224098
 C         -5.4176921438       -1.9496989397       -0.5616370689
 H         -4.7979531956       -2.7535740277       -0.2008092395
 H         -6.4069267694       -3.0793503232       -2.0821498273
 H         -7.7932374234       -1.1835221811       -2.8348109456
 H         -7.5889246388        1.0176073934       -1.7390913300
 H         -5.9584926939        1.3089888887        0.1348428770
 H         -2.1040481764       -1.3831949439        1.3520889778
 H         -3.5217018465        0.5624624953       -1.3463751837
 H         -2.3193553310        2.4446340323       -2.4005926981
 H         -0.1102812661        3.1243166272       -1.5823334699
 H          1.1255453581        2.2783955615        1.6203027629
 C          1.9101822942        3.2674783254       -0.0797209367
 C          3.3965091009        3.4580943707       -0.1215106352
 C          2.6366731886        3.2162828343       -1.3890474985
 H          2.5136844759        4.0413474134       -2.0753887378
 H          2.7268055112        2.2561277554       -1.8708705689
 H          3.7914646612        4.4454426451        0.0655668301
 H          4.0146932257        2.6614553007        0.2671751763
 H          1.3210111338        4.1579754940        0.1171255790
