  62
        -98.93270518
 C         -1.3185474300       -1.4235522782        0.3684814161
 C         -1.5485072154       -0.0304051423        0.5066030939
 C         -2.8113268628        0.4845226724       -0.0374288611
 C         -3.6702573036       -0.3645850960       -0.6285981860
 C         -4.9808954559       -0.0142168249       -1.2829719568
 C         -6.0766299316        0.5498407521       -0.3584179099
 C         -6.1201104755        2.0815243719       -0.2908335562
 H         -5.6699699223        2.4857893453       -1.1982039450
 H         -7.1635698388        2.4033228605       -0.2887283810
 C         -5.4555359985        2.7141684840        0.9354814230
 H         -5.3400849834        3.7822516930        0.7388997321
 H         -6.1212437655        2.6093690311        1.7953583328
 C         -4.0981693125        2.1335796374        1.3333375165
 H         -4.2412149122        1.1670612839        1.8224460049
 H         -3.6526821331        2.7928757463        2.0809243714
 C         -3.1122570870        1.9409903444        0.1647653720
 H         -2.1597367034        2.4201737952        0.3978776626
 H         -3.5085991851        2.3809341432       -0.7489978615
 H         -5.9639918684        0.1266728231        0.6394335472
 H         -7.0324640133        0.1990865266       -0.7510839550
 H         -4.7894600122        0.6948880116       -2.0915772897
 H         -5.3379341063       -0.9431028250       -1.7324650991
 O         -3.4126229163       -1.6949895385       -0.7428076540
 C         -2.2369846557       -2.2624153908       -0.2624091384
 O         -2.1574592158       -3.4874155556       -0.4663051848
 O         -0.7282145824        0.7472230644        1.0610749795
 C          0.0043700103       -1.9361529301        0.9090986612
 C          1.0608253432       -1.8048343960       -0.1574024293
 C          0.8897176100       -2.3869775138       -1.4106946871
 C          1.8572510411       -2.2407725367       -2.3868186878
 C          2.9997708953       -1.4982176237       -2.1416074279
 C          3.1744705071       -0.9049251229       -0.8971342273
 C          2.2088605829       -1.0675560323        0.0881550987
 H          2.3592324965       -0.6048462181        1.0516020527
 N          4.3206388146       -0.1493610696       -0.6210274993
 S          4.2530403957        1.1607393692        0.4108339047
 O          5.4111613431        1.9514152030        0.0492374747
 O          4.2121541579        0.7102983803        1.7797921235
 C          2.7670679568        2.0611102825        0.0062596774
 C          1.9716210551        2.5363210805        1.0272308473
 C          0.8463616122        3.2800529893        0.7127636193
 C          0.5343468128        3.5285922239       -0.6133935354
 C          1.3418073496        3.0415444984       -1.6295271347
 C          2.4734140043        2.3057072460       -1.3205890602
 H          3.1212888561        1.9243401240       -2.0931890244
 H          1.0916941897        3.2326745983       -2.6609923558
 H         -0.3464466590        4.1018617313       -0.8578818244
 H          0.2142227686        3.6494554640        1.5037258371
 H          2.2374763034        2.3068459526        2.0465710488
 H          4.9347872951        0.0107941369       -1.4054074560
 H          3.7515204427       -1.3792601012       -2.9068115982
 H          1.7175676329       -2.7023056294       -3.3526867325
 H         -0.0087080977       -2.9537264077       -1.6054666253
 H          0.2700702785       -1.2346592325        1.7164404275
 C         -0.0705090520       -3.3250831603        1.5248000878
 C          0.6301134407       -4.5226185397        0.9637428066
 C          1.1329335319       -3.8872799354        2.2229380503
 H          0.9957539494       -4.4057042359        3.1598481114
 H          2.0486100697       -3.3167563956        2.1643542455
 H          0.1204346491       -5.4719181636        1.0270470410
 H          1.2149022007       -4.4028893846        0.0656626569
 H         -1.0323659611       -3.5116195096        1.9908683565
