  62
        -98.93710918
 C          1.7218546493        0.6049047702       -0.3109870002
 C          2.8345096292        1.2822146403        0.2431609799
 C          4.1602476393        0.7599565606       -0.1197826502
 C          4.2418256195       -0.3027967294       -0.9409062202
 C          5.5116080196       -0.9956001091       -1.3472728503
 C          6.0109477097       -1.8985523891       -0.2013256903
 C          7.3431338697       -1.4625206990        0.4090907097
 H          7.4826664898       -2.0321810290        1.3303194197
 H          8.1515443597       -1.7355466688       -0.2724517403
 C          7.4772714594        0.0312310410        0.7205325598
 H          8.3429721494        0.1422801111        1.3769356598
 H          7.7095427993        0.5774127611       -0.1948867702
 C          6.2634807193        0.6885523008        1.3901149398
 H          6.6296873192        1.3929819908        2.1396868199
 H          5.6663786394       -0.0551454393        1.9181624098
 C          5.3565091692        1.4847527307        0.4331249899
 H          4.9390978790        2.3375618806        0.9764981499
 H          5.9553041991        1.8822115109       -0.3910060301
 H          5.2428556797       -1.9226977893        0.5745564297
 H          6.1199944099       -2.9213382691       -0.5653037404
 H          5.2859081497       -1.5932103091       -2.2307495403
 H          6.2657808095       -0.2568990490       -1.6095030002
 O          3.1493724196       -0.9307304595       -1.4485130103
 C          1.8640621295       -0.5012775097       -1.1480701603
 O          0.9633463396       -1.1752239599       -1.6821788503
 O          2.7232773990        2.2789256403        1.0066548199
 C          0.3251970692        1.1028005899        0.0228067898
 C         -0.4278561306        0.0182831498        0.7502061498
 C          0.0537186595       -0.3984869802        1.9900166897
 C         -0.5695046404       -1.4149948004        2.6855453297
 C         -1.6909071503       -2.0350531605        2.1619161796
 C         -2.1790782403       -1.6275589105        0.9262971696
 C         -1.5562687605       -0.5968090904        0.2326754597
 H         -1.9422746205       -0.3160506004       -0.7324174403
 N         -3.3010893902       -2.2539330607        0.3740649296
 S         -4.3300600403       -1.4933008208       -0.6852413804
 O         -5.5414624702       -2.2852087510       -0.6249716404
 O         -3.7346040303       -1.3638872406       -1.9914033903
 C         -4.6484311706        0.1259232391       -0.0037121003
 C         -4.8411610206        0.2678625990        1.3561630098
 C         -5.1222635308        1.5254866289        1.8653201898
 C         -5.2146574510        2.6137257990        1.0114669799
 C         -5.0271811210        2.4541622091       -0.3522542601
 C         -4.7401304308        1.1993780192       -0.8657832802
 H         -4.5797127907        1.0291377293       -1.9185841002
 H         -5.1009539211        3.3008892691       -1.0158127201
 H         -5.4345065012        3.5914092589        1.4102443200
 H         -5.2687355309        1.6522047188        2.9258841898
 H         -4.7699351605       -0.5930471210        2.0001685897
 H         -3.7646359901       -2.9326770408        0.9577934396
 H         -2.1758242901       -2.8371580807        2.6970776296
 H         -0.1828066603       -1.7289365604        3.6433116497
 H          0.9338448594        0.0834316099        2.3931902198
 H          0.4766105791        1.9405524099        0.7186920499
 C         -0.3718404308        1.6216798299       -1.2155035601
 C         -1.4816432610        2.6194466297       -1.0829026601
 C         -0.1511971911        3.0463445600       -1.6242755200
 H         -0.0692650011        3.2734755100       -2.6766496500
 H          0.4897369988        3.6483124300       -0.9968821300
 H         -2.3141991210        2.5513360096       -1.7656031701
 H         -1.7533563711        2.9353508996       -0.0872052001
 H         -0.4414435107        0.8815045999       -2.0050253002
