  62
        -98.93555572
 C          0.2821204466        2.0571516444       -0.4729477551
 C          0.9098266597        0.8565435133       -0.8820670971
 C          2.2825270405        0.6273525599       -0.3825294958
 C          2.8269540606        1.5003006321        0.4813279611
 C          4.1909141397        1.4732150143        1.1248641036
 C          4.6696367039        0.1194009450        1.6716688620
 C          5.8048141868       -0.5010990356        0.8544401386
 H          6.4899949799        0.2950951353        0.5558022176
 H          6.3620106638       -1.1861157436        1.4974949462
 C          5.3676340672       -1.2819010988       -0.3837048072
 H          4.8953588072       -2.2159586251       -0.0716841324
 H          6.2686803253       -1.5433417752       -0.9435376878
 C          4.4060411461       -0.5423442250       -1.3157740376
 H          4.4864280435       -0.9944659706       -2.3063826037
 H          4.7009948369        0.5013987050       -1.4170937879
 C          2.9369516404       -0.6335376684       -0.8766317218
 H          2.3165346424       -0.9539923943       -1.7193665940
 H          2.8232893063       -1.4047041559       -0.1094826557
 H          3.8273952343       -0.5677853745        1.7453600216
 H          5.0372848679        0.2828254654        2.6863680529
 H          4.1329259884        2.2008870714        1.9377137722
 H          4.9202139058        1.8627593669        0.4097588430
 O          2.1643333217        2.6212287407        0.8902290071
 C          0.8992352610        2.9264165000        0.4277512232
 O          0.4332357249        3.9934574590        0.8795638791
 O          0.3781831346        0.0032629457       -1.6370119897
 C         -1.1150594055        2.4660587450       -0.9138107183
 C         -2.1472617295        1.8923001313        0.0219685395
 C         -3.1631019355        2.6782851445        0.5528291992
 C         -4.0870163392        2.1324843288        1.4270489594
 C         -4.0076038492        0.8019539511        1.7978070340
 C         -2.9941779523        0.0086344945        1.2713260389
 C         -2.0848484901        0.5528685999        0.3780742674
 H         -1.3026946900       -0.0673832315       -0.0263251769
 N         -2.8873575162       -1.3491621621        1.6011314295
 S         -1.3913110746       -2.0971207189        1.6349838457
 O         -1.6043188295       -3.2791852375        2.4476026678
 O         -0.3527986062       -1.2063000925        2.1038408252
 C         -1.0726313941       -2.6151101341       -0.0373302608
 C         -2.0798347711       -2.6439262727       -0.9790250401
 C         -1.7804643143       -3.0754976146       -2.2611573323
 C         -0.4921461399       -3.4756853545       -2.5760324123
 C          0.5057875794       -3.4509947367       -1.6154624148
 C          0.2132801328       -3.0170289952       -0.3337787313
 H          0.9600886469       -2.9668637302        0.4433232303
 H          1.5103765867       -3.7567663212       -1.8612644227
 H         -0.2615323995       -3.8025737282       -3.5778132382
 H         -2.5536820471       -3.0895229520       -3.0126134974
 H         -3.0707610649       -2.3169142652       -0.7098490185
 H         -3.4974185779       -1.6741956827        2.3361930279
 H         -4.7184665575        0.3800592642        2.4917507017
 H         -4.8706542013        2.7525407151        1.8352648061
 H         -3.2138301208        3.7253336510        0.2922310868
 H         -1.1435485152        3.5622870566       -0.8043891762
 C         -1.3985070686        2.1490723520       -2.3758567280
 C         -2.2928716790        1.0366974396       -2.8238881756
 C         -2.7446038708        2.4575155129       -2.9626269867
 H         -2.7901142129        2.8956470723       -3.9481193279
 H         -3.5118689445        2.8055546535       -2.2875351780
 H         -2.0014637464        0.4906015767       -3.7074791431
 H         -2.7564658015        0.4222772564       -2.0687570885
 H         -0.5359330046        2.3530495433       -3.0020642928
