  62
        -98.93728000
 C         -1.6989325966       -1.4967050827       -0.0417819385
 C         -2.9954958477       -1.2760537727        0.4913119402
 C         -3.7678720892       -0.1515605330       -0.0652153135
 C         -3.2064888409        0.6134000857       -1.0167493531
 C         -3.7655818322        1.8582843641       -1.6478684411
 C         -3.2874584211        3.1073596139       -0.8869634415
 C         -4.1747085786        3.5249340837        0.2846155522
 H         -3.6679201380        4.3432001044        0.8011249032
 H         -5.1188458396        3.9158170648       -0.1006129724
 C         -4.4794444279        2.4194051850        1.2987957375
 H         -3.5717208405        1.8495632477        1.5062341583
 H         -4.7814701897        2.8962249225        2.2332974272
 C         -5.5979112063        1.4709465998        0.8420859785
 H         -6.3455424508        1.3850522929        1.6335299618
 H         -6.1080574082        1.9064923569       -0.0169830919
 C         -5.1460511751        0.0423377115        0.5062089700
 H         -5.8733813222       -0.4097278547       -0.1769325453
 H         -5.1561252569       -0.5642625320        1.4173265534
 H         -2.2741894417        2.9136621727       -0.5257807903
 H         -3.2333649394        3.9444977685       -1.5857891746
 H         -4.8495683398        1.8162958231       -1.6950440191
 H         -3.3718270049        1.8965279692       -2.6658130893
 O         -1.9629583600        0.3671749109       -1.5064756353
 C         -1.1795932898       -0.6828572175       -1.0504372671
 O         -0.0818644423       -0.7633369984       -1.6303656723
 O         -3.4857663233       -1.9858408392        1.4099255174
 C         -0.8627218685       -2.5891780938        0.6061952617
 C          0.4317047649       -1.9730720217        1.0697072497
 C          0.4774667643       -1.2927762833        2.2829586314
 C          1.6274435257       -0.6369761997        2.6820758776
 C          2.7423970213       -0.6157917262        1.8623224839
 C          2.6966763640       -1.2746296631        0.6406585428
 C          1.5601047713       -1.9782033892        0.2653279976
 H          1.5366961488       -2.4887120704       -0.6844210218
 N          3.7985494750       -1.1989637303       -0.2287370777
 S          4.5425031101        0.2913409052       -0.3910663686
 O          5.0760531131        0.3081304968       -1.7359394420
 O          5.5185154435        0.4495276796        0.6611974611
 C          3.2771243846        1.5408129855       -0.2079210562
 C          2.1086748699        1.4344417308       -0.9345713688
 C          1.1413214772        2.4165852070       -0.7916118749
 C          1.3570977018        3.4866915816        0.0618791729
 C          2.5402963280        3.5831622313        0.7783999962
 C          3.5090885007        2.6020809567        0.6449443440
 H          4.4385080962        2.6328294879        1.1904235468
 H          2.7079443179        4.4161821208        1.4420385223
 H          0.5994090515        4.2473258398        0.1691296419
 H          0.2203651268        2.3228895097       -1.3462831566
 H          1.9316170522        0.5901301304       -1.5813536819
 H          3.6202845216       -1.6090120407       -1.1342556127
 H          3.6422404484       -0.0945290384        2.1469892956
 H          1.6535664659       -0.1242623525        3.6313824933
 H         -0.4052142383       -1.2759746658        2.9069630308
 H         -1.4429921404       -2.8823463347        1.4952549706
 C         -0.6655715143       -3.8540658370       -0.2140049546
 C         -1.8200051664       -4.4543513061       -0.9587176143
 C         -0.6550739616       -3.8887229051       -1.7113522069
 H          0.0224140547       -4.5773491295       -2.1958248222
 H         -0.7861957712       -2.9620293999       -2.2461491373
 H         -1.9525408421       -5.5254635325       -0.9366682137
 H         -2.7460952263       -3.8977822341       -0.9626675354
 H          0.0002843279       -4.5507370826        0.2872090494
