  62
        -98.93772436
 C         -2.4176394014       -1.1514476898        0.0294058769
 C         -3.3680659491       -0.6053213918        0.9307499902
 C         -4.3542027890        0.3403794666        0.3824301881
 C         -4.3143724866        0.6433644998       -0.9281635215
 C         -5.2013683638        1.5297872340       -1.7771666417
 C         -6.1773563389        2.5071289084       -1.1275407316
 C         -5.5186757692        3.6673231246       -0.3816995530
 H         -5.0495320335        4.3287225676       -1.1145120896
 H         -6.3012590623        4.2355548272        0.1256880553
 C         -4.4494157041        3.2762640414        0.6354637963
 H         -3.6164612602        2.7889110141        0.1243145096
 H         -4.0592181436        4.1958201350        1.0800354713
 C         -4.9270206180        2.3772169988        1.7740807982
 H         -4.1128143140        2.3061165181        2.5002644623
 H         -5.7812231697        2.8386027814        2.2733156521
 C         -5.3114377358        0.9436825566        1.3695656322
 H         -5.2639578157        0.3163521272        2.2643612151
 H         -6.3305547774        0.8983969160        0.9931309754
 H         -6.8644531575        1.9752222342       -0.4761710783
 H         -6.7756363072        2.9335017146       -1.9373894662
 H         -4.5254481095        2.0835006406       -2.4366843039
 H         -5.7695231471        0.8495285302       -2.4213757745
 O         -3.3876777941        0.0873223233       -1.7601939554
 C         -2.4217497028       -0.8021836235       -1.3192305223
 O         -1.6565213035       -1.1842852365       -2.2290111423
 H          0.2800491957       -1.0061950894       -1.1791627862
 C          0.6732095778       -0.9616241697       -0.1740701114
 C         -0.0758668371       -1.4816468663        0.8719159395
 C          0.4428276841       -1.4103299457        2.1594896276
 C          1.6786305141       -0.8315828046        2.3900810528
 C          2.4184852286       -0.3076709849        1.3452774131
 C          1.9081105530       -0.3714556835        0.0551275757
 N          2.6353829917        0.1838828405       -1.0120275721
 S          4.2497235603       -0.2404213045       -1.1840653347
 O          4.5553402980       -0.0201989458       -2.5807255651
 O          4.5082465588       -1.5663931753       -0.6717464718
 C          5.1149393093        0.9699250694       -0.2052285699
 C          6.0186658163        0.5605669381        0.7556340511
 C          6.6902764516        1.5209003318        1.4963375280
 C          6.4482188535        2.8659981334        1.2635206155
 C          5.5390115701        3.2606407950        0.2931307661
 C          4.8654229021        2.3058415473       -0.4517015770
 H          4.1531600610        2.5702391245       -1.2155709352
 H          5.3526930705        4.3075848683        0.1153175409
 H          6.9708160556        3.6116194123        1.8416632139
 H          7.3973131635        1.2161927725        2.2510852626
 H          6.1693261475       -0.4965258994        0.9060508844
 H          2.1526167759        0.1231017641       -1.8972507224
 H          3.3803138013        0.1465830097        1.5189259146
 H          2.0692040649       -0.7841839065        3.3950895039
 H         -0.1349778297       -1.8039117343        2.9829655404
 C         -1.4141922493       -2.1322634768        0.6118873380
 H         -1.8352622458       -2.4254722771        1.5829749518
 C         -1.2419125325       -3.3819610534       -0.2302443756
 C         -0.7217504692       -4.6287852979        0.4170775172
 C         -2.1560336152       -4.5480273468       -0.0104226227
 H         -2.4747659449       -5.1207254546       -0.8683989589
 H         -2.9116957812       -4.4524325593        0.7556431038
 H         -0.0499220324       -5.2585287602       -0.1458404427
 H         -0.5052159157       -4.5903463272        1.4738747517
 H         -0.9347615589       -3.1776331252       -1.2479190885
 O         -3.4002634496       -0.9090315645        2.1529002032
