  62
        -98.94168370
 C         -2.3911552654       -1.2386916709        0.1679244275
 C         -3.2903233652       -0.5202283712        0.9964946496
 C         -4.0390543817        0.5651089768        0.3540341675
 C         -3.8313543946        0.8379735908       -0.9466856092
 C         -4.5350830391        1.8953153078       -1.7533842656
 C         -3.9168115820        3.2939848134       -1.6225055972
 C         -4.1620659222        3.9899703903       -0.2830665803
 H         -3.8651097367        5.0334468252       -0.4052969331
 H         -5.2291469275        3.9784206026       -0.0589068587
 C         -3.3803679818        3.3900854429        0.8941809376
 H         -2.5646547952        2.7713904473        0.5107489826
 H         -2.9221133880        4.1943647872        1.4745430030
 C         -4.2263510648        2.5588705202        1.8593062626
 H         -3.5672376313        2.1549350636        2.6321252284
 H         -4.9616010517        3.2023940575        2.3471244464
 C         -4.9636920784        1.3835018831        1.2040489784
 H         -5.8018594291        1.7488178178        0.6112414898
 H         -5.3483915261        0.7366746560        1.9962873321
 H         -2.8414859458        3.2194657978       -1.8037433468
 H         -4.3437363311        3.9145635313       -2.4137255307
 H         -5.5871996421        1.9331486588       -1.4695740828
 H         -4.4662898282        1.5856696530       -2.7984310654
 O         -2.9376328207        0.1478627599       -1.7020338103
 C         -2.1735273058       -0.8830069494       -1.1647541623
 O         -1.3674251807       -1.3802986273       -1.9716363528
 O         -3.4555839930       -0.7720740606        2.2201906757
 C         -1.5790740405       -2.3496343217        0.8111749168
 C         -0.1167760399       -2.1529790241        0.4994918851
 C          0.6636843389       -3.0762919763       -0.1818363847
 C          1.9925940188       -2.8011951980       -0.4552689466
 C          2.5710101972       -1.6109736911       -0.0549918604
 C          1.7980925932       -0.6784035070        0.6247953561
 C          0.4703103605       -0.9591814331        0.9024501886
 H         -0.1344986244       -0.2279371957        1.4266495776
 N          2.3769486196        0.5346482724        1.0435730125
 S          3.1744781187        1.4602908462       -0.1108284726
 O          3.1185453306        2.8155336932        0.3947572355
 O          2.6380069911        1.2460724401       -1.4349250988
 C          4.8555778788        0.8805327444       -0.0247646361
 C          5.4806664206        0.4091445167       -1.1623466708
 C          6.7920248677       -0.0317116122       -1.0720680289
 C          7.4508154728        0.0072496342        0.1472798197
 C          6.8092059791        0.4860016207        1.2800447502
 C          5.4990990006        0.9293749589        1.1964650893
 H          4.9654857580        1.3123562659        2.0501719618
 H          7.3248856317        0.5146937707        2.2263343599
 H          8.4705084615       -0.3375368610        0.2150322176
 H          7.2920957121       -0.4037822083       -1.9518395619
 H          4.9253519408        0.3920192343       -2.0868184553
 H          1.7447315150        1.1163672977        1.5751093298
 H          3.6033838681       -1.3918462192       -0.2737881210
 H          2.5860204021       -3.5242203777       -0.9938786646
 H          0.2245313510       -3.9986748734       -0.5241959033
 H         -1.7164223638       -2.1888446784        1.8941108892
 C         -2.0821855344       -3.7550660132        0.5219767236
 C         -3.5297422211       -4.0080840544        0.2269599065
 C         -2.5017045844       -4.2021398790       -0.8450293866
 H         -2.2636935120       -5.2118489130       -1.1466642840
 H         -2.4468434624       -3.4832268985       -1.6468906639
 H         -3.9976347189       -4.8801382854        0.6584674362
 H         -4.1829595196       -3.1500797049        0.1582142042
 H         -1.5840736117       -4.4944326053        1.1417519470
