  62
        -98.94046229
 C          2.1804008501        1.2673421276       -0.0605282505
 C          2.4542032076        0.0736862200       -0.7743975550
 C          3.8367363341       -0.4196363269       -0.6824690251
 C          4.7540137115        0.2647667990        0.0226441947
 C          6.2045685258       -0.1004075092        0.1838404082
 C          6.4697615291       -1.1174664496        1.3022928815
 C          6.0208878534       -2.5480335633        1.0009833633
 H          6.4318834447       -2.8624243958        0.0410943683
 H          6.4590446895       -3.1893555183        1.7683250340
 C          4.4986821896       -2.7481466942        1.0016769706
 H          4.0200952436       -1.9078336719        1.5100476201
 H          4.2494011425       -3.6475424214        1.5692932255
 C          3.8780410176       -2.9038384067       -0.3868688387
 H          2.7949004797       -2.9966079243       -0.2699697350
 H          4.2461352493       -3.8211556926       -0.8519733951
 C          4.1526394203       -1.7305554360       -1.3365746990
 H          5.1895550627       -1.7513888235       -1.6714551685
 H          3.5002283530       -1.8354863320       -2.2070342268
 H          7.5469251197       -1.1281678628        1.4840557343
 H          5.9822866209       -0.7677069740        2.2152807487
 H          6.5932402207       -0.4851048434       -0.7594517695
 H          6.7330971324        0.8239181473        0.4271005846
 O          4.4557341162        1.4167641475        0.6802004399
 C          3.1648233563        1.9198382418        0.6875192149
 O          3.0219427799        2.9428614621        1.3865326716
 O          1.6093230337       -0.5562389168       -1.4601446368
 C          0.7857217623        1.8697913713       -0.0010040143
 C         -0.2190715524        0.7820346755        0.2861399316
 C         -0.2189957573        0.1882348936        1.5451053936
 C         -1.0979362161       -0.8349406324        1.8454568499
 C         -1.9975015670       -1.2873467969        0.8964646400
 C         -2.0073151441       -0.6995529269       -0.3613450642
 C         -1.1317273393        0.3378363969       -0.6568398050
 H         -1.1331785742        0.7675896364       -1.6462005327
 N         -2.9140069190       -1.1571077786       -1.3295796197
 S         -4.4893916623       -1.4710988382       -0.8755272856
 O         -4.5707541049       -2.7598204842       -0.2338680211
 O         -5.2691150795       -1.3175567817       -2.0837817625
 C         -4.8967578006       -0.1882049924        0.2963710133
 C         -4.8572777174        1.1228329953       -0.1358607144
 C         -5.1374633353        2.1352992424        0.7668700257
 C         -5.4499619490        1.8214027656        2.0809638982
 C         -5.4902018806        0.5004203515        2.4983330322
 C         -5.2095005628       -0.5163885147        1.5994641016
 H         -5.2287201252       -1.5562297272        1.8825197750
 H         -5.7357972007        0.2591957114        3.5200131719
 H         -5.6642714886        2.6120611695        2.7825969546
 H         -5.1086460012        3.1638294689        0.4446175057
 H         -4.6185216909        1.3321568818       -1.1661434772
 H         -2.8580314487       -0.6770916003       -2.2148149870
 H         -2.6744631153       -2.0999283115        1.1045121514
 H         -1.0799350229       -1.2900673658        2.8241797316
 H          0.4928166034        0.5328579651        2.2832856273
 H          0.8086336773        2.5455092465        0.8692167618
 C          0.4178020758        2.7283893725       -1.2017282871
 C          1.4572542096        3.5563641350       -1.8950434625
 C          0.8332548963        2.3920337399       -2.6011809354
 H          0.1386629162        2.5954322643       -3.4037815441
 H          1.4230686289        1.5019013776       -2.7516110555
 H          1.1938242475        4.5544168770       -2.2114488338
 H          2.4781477373        3.4620093329       -1.5542297973
 H         -0.5591233762        3.1871608050       -1.0813883104
