  62
        -98.94417231
 C         -2.2501270571        0.8655923093       -0.4047068883
 C         -2.4530812097        0.0084194327        0.7042065384
 C         -3.2984551925       -1.1657383428        0.4518919921
 C         -3.7838705522       -1.3896330038       -0.7826994320
 C         -4.6407224719       -2.5541622483       -1.1999021940
 C         -6.1361743453       -2.3630453798       -0.9115881453
 C         -6.5318737327       -2.4552270036        0.5626885495
 H         -7.6210502798       -2.5221093468        0.5976721722
 H         -6.1354360989       -3.3782101243        0.9868886195
 C         -6.0833019654       -1.2598729549        1.4150477314
 H         -5.8259442919       -0.4229532110        0.7617525560
 H         -6.9126948259       -0.9303944107        2.0448492390
 C         -4.8998294141       -1.5483225569        2.3387522131
 H         -4.6432684889       -0.6257135093        2.8653370202
 H         -5.1894612431       -2.2922903680        3.0840449568
 C         -3.6414545847       -2.0459320570        1.6155929443
 H         -3.7782321138       -3.0762175352        1.2878386760
 H         -2.8042185474       -2.0081024832        2.3167895536
 H         -6.4482583683       -1.3961811517       -1.3132189769
 H         -6.6747081273       -3.1396004359       -1.4596999528
 H         -4.2878075282       -3.4628815437       -0.7113430188
 H         -4.5097490488       -2.6658929321       -2.2785103171
 O         -3.5226441639       -0.5660622085       -1.8340952926
 C         -2.7676521391        0.5846379791       -1.6679847005
 O         -2.6190765932        1.2568622659       -2.7103057179
 O         -1.9548410079        0.2083844321        1.8412550429
 C         -1.4172624022        2.1235159021       -0.2422232150
 C         -0.0164093891        1.7727704205        0.2002003178
 C          0.6664006046        2.4669160194        1.1900960962
 C          1.9575037008        2.1060359054        1.5355989513
 C          2.5947420273        1.0534914023        0.9055331700
 C          1.9268359613        0.3611310027       -0.0963313745
 C          0.6363796009        0.7287425802       -0.4439718200
 H          0.1185939072        0.1900523910       -1.2294054876
 N          2.5632199650       -0.7168053037       -0.7385397477
 S          4.0879287190       -0.4518440304       -1.3929978173
 O          4.2599581580        0.9265796453       -1.7901905520
 O          4.2291156677       -1.4440242740       -2.4365672927
 C          5.2006459867       -0.8485537510       -0.0610753835
 C          5.1064863393       -2.1012561765        0.5128866772
 C          5.9691600006       -2.4298819441        1.5462604493
 C          6.9078840284       -1.5069204834        1.9832602061
 C          6.9920167698       -0.2547596825        1.3939949183
 C          6.1312204745        0.0809044166        0.3604136760
 H          6.1554099833        1.0440910264       -0.1237967532
 H          7.7225601380        0.4609776340        1.7351256447
 H          7.5777534507       -1.7654997574        2.7880568923
 H          5.9063067870       -3.4025122636        2.0071250134
 H          4.3651803164       -2.7893432821        0.1419011476
 H          1.9734462140       -1.1930124959       -1.4057466926
 H          3.5966263083        0.7647358997        1.1778646427
 H          2.4733188582        2.6504853475        2.3116668042
 H          0.1865956294        3.2892581119        1.6946149374
 H         -1.3495303376        2.5757424231       -1.2433096251
 C         -2.1189530711        3.0945677396        0.6849416889
 C         -1.9446809152        4.5720613345        0.5078997926
 C         -3.2445911054        3.9217747045        0.1435557219
 H         -4.1054175737        4.0969605500        0.7712284287
 H         -3.4849809180        3.8055609737       -0.9037190924
 H         -1.9163402004        5.1976550155        1.3872820864
 H         -1.3052344456        4.9081386793       -0.2944980645
 H         -2.2229629118        2.7055037967        1.6911650023
