  62
        -98.93249128
 C         -2.5994476366       -1.2018144343        0.1950430029
 C         -3.0392021643       -0.2340553542        1.1317565026
 C         -4.2662992660        0.5115420478        0.8058058493
 C         -4.9033808396        0.2517924266       -0.3510519362
 C         -6.1880584050        0.8065251225       -0.9303869992
 C         -6.8296806924        2.0619877649       -0.3458164084
 C         -6.0299985580        3.3465848155       -0.5605496375
 H         -6.0544312032        3.5965814051       -1.6242215552
 H         -6.5272387764        4.1535558939       -0.0179462585
 C         -4.5649152548        3.2902614553       -0.1350482709
 H         -4.1163294542        4.2635604415       -0.3517560207
 H         -4.0348084202        2.5512019812       -0.7392934293
 C         -4.3237418287        2.9872571336        1.3424323652
 H         -4.8774379876        3.6981432634        1.9589095235
 H         -3.2579827698        3.1332459704        1.5381296901
 C         -4.6849099146        1.5616454902        1.7941905860
 H         -4.1348382117        1.3500669393        2.7158469529
 H         -5.7450848915        1.4750536314        2.0205032172
 H         -7.7914980851        2.1840700527       -0.8514152117
 H         -7.0454536234        1.9183313043        0.7088266531
 H         -5.9896477073        0.9678510067       -1.9947184091
 H         -6.9146528183       -0.0116874824       -0.8742062483
 O         -4.4417558611       -0.6874980921       -1.2253204853
 C         -3.2880628376       -1.4257278239       -0.9965043540
 O         -3.0147653937       -2.2173661660       -1.9158503667
 O         -2.4339997248       -0.0125625838        2.2159094287
 C         -1.3439979638       -1.9746669184        0.5557820554
 C         -0.1125647757       -1.2925604356        0.0167133427
 C         -0.0063490677       -0.9445197438       -1.3263340811
 C          1.1382568347       -0.3302314463       -1.8009069975
 C          2.1933068929       -0.0446612401       -0.9514538545
 C          2.0967418632       -0.3838582897        0.3910551168
 C          0.9476035965       -1.0061926033        0.8639074709
 H          0.8710746502       -1.2587953379        1.9130961516
 N          3.1533011994       -0.0782245240        1.2624022967
 S          4.7226484909       -0.4575546268        0.8072051585
 O          4.7542568865       -1.6076611326       -0.0657291345
 O          5.4544504291       -0.5719990127        2.0494287202
 C          5.2797783700        0.9909504630       -0.0645573720
 C          5.8162251630        0.8673757769       -1.3311716534
 C          6.2555870071        2.0070859279       -1.9868190487
 C          6.1524773035        3.2428003922       -1.3667130760
 C          5.6134364509        3.3493856804       -0.0931156610
 C          5.1731661424        2.2140305938        0.5680901887
 H          4.7503057457        2.2548274473        1.5580927466
 H          5.5344589819        4.3122976689        0.3854439553
 H          6.4940320489        4.1283213589       -1.8791097937
 H          6.6748499059        1.9263827307       -2.9768874675
 H          5.8712894793       -0.1132712471       -1.7766907698
 H          2.9805085470       -0.3272449523        2.2254024555
 H          3.0853352983        0.4349451419       -1.3197063370
 H          1.2096495618       -0.0682818368       -2.8457617908
 H         -0.8275658480       -1.1667125840       -1.9912302147
 H         -1.2929031055       -1.9198172304        1.6552129153
 C         -1.4168381651       -3.4492790776        0.1846473916
 C         -0.6028677030       -4.0801787879       -0.9005126199
 C         -0.2824825239       -4.3674039516        0.5338026023
 H         -0.5089561911       -5.3441831329        0.9336012362
 H          0.6129494999       -3.9204055058        0.9405507571
 H         -1.0747118709       -4.8473862681       -1.4949470560
 H          0.0796860610       -3.4591320188       -1.4585355486
 H         -2.4181143639       -3.8464251928        0.3185293302
