  62
        -98.94330747
 C         -2.2731068135       -0.7131731776        0.0728034139
 C         -3.0962980502       -0.1322664467        1.0750193556
 C         -3.9404992987        0.9945285930        0.6611591712
 C         -3.8877814571        1.4171795676       -0.6147487259
 C         -4.7239331613        2.5225553439       -1.1898474946
 C         -6.0360746587        1.9817461240       -1.7748085704
 C         -6.7929475845        1.0462666628       -0.8320345679
 H         -7.7152451844        0.7517794650       -1.3374599875
 H         -6.2043864215        0.1380517053       -0.6832805742
 C         -7.1314340660        1.6593321123        0.5340319032
 H         -7.0541583513        2.7459264844        0.4820152914
 H         -8.1685032363        1.4195895536        0.7779940752
 C         -6.2715352215        1.1452196690        1.6901786587
 H         -6.7320665820        1.4700384754        2.6269502229
 H         -6.2705764477        0.0523407136        1.6881885855
 C         -4.8158714426        1.6284764723        1.7053361555
 H         -4.7887832996        2.7167355034        1.6201579254
 H         -4.3823932141        1.3479774261        2.6696460200
 H         -5.8064755778        1.4322524203       -2.6907173559
 H         -6.6717546284        2.8292309949       -2.0376178694
 H         -4.9349321910        3.2527188409       -0.4108875093
 H         -4.1542582938        3.0067266618       -1.9848642809
 O         -3.0857864249        0.8443936320       -1.5452856698
 C         -2.2615402273       -0.2279641117       -1.2346879539
 O         -1.5912134896       -0.6279280232       -2.2091675127
 H          0.3859534348       -0.7954427421       -1.2192922393
 C          0.7991280739       -0.8888848308       -0.2258450072
 C          0.0156026767       -1.4198961502        0.7886434757
 C          0.5611194551       -1.5268474947        2.0625949635
 C          1.8557124736       -1.1060196544        2.3112847445
 C          2.6288840704       -0.5642593914        1.3001495112
 C          2.0939307256       -0.4544498591        0.0230696466
 N          2.8485040195        0.1265765569       -1.0072421964
 S          4.4634494325       -0.2752088384       -1.1910046942
 O          4.7725872002        0.0223553199       -2.5722888459
 O          4.7321863428       -1.6242912848       -0.7497610111
 C          5.3099062121        0.8906087312       -0.1439819327
 C          6.2177340647        0.4440359524        0.7961117498
 C          6.8699525486        1.3729310289        1.5921783928
 C          6.6052968061        2.7245363715        1.4338688563
 C          5.6927795835        3.1570516886        0.4830077610
 C          5.0381931412        2.2337155790       -0.3162923109
 H          4.3239819478        2.5286145608       -1.0671252024
 H          5.4888928815        4.2089163798        0.3626308993
 H          7.1127189809        3.4456465515        2.0550273163
 H          7.5796928166        1.0390001989        2.3318749578
 H          6.3878330948       -0.6169527878        0.8878008837
 H          2.3683338328        0.1582563510       -1.8946318998
 H          3.6361607547       -0.2314999324        1.4894917471
 H          2.2665928328       -1.1949416818        3.3053378832
 H         -0.0419740402       -1.9310921982        2.8623526251
 C         -1.3976407878       -1.8761746691        0.5105006997
 H         -1.8296127048       -2.2154704738        1.4616059281
 C         -1.4070980184       -3.0414160888       -0.4596711047
 C         -1.0389514693       -4.4051740306        0.0395243221
 C         -2.4596044067       -4.0990493869       -0.3268633719
 H         -2.8686085800       -4.5338344354       -1.2265185777
 H         -3.1794502139       -3.9903438442        0.4713567221
 H         -0.4673490994       -5.0527801870       -0.6075434609
 H         -0.7964158449       -4.5058670445        1.0865297971
 H         -1.0988839777       -2.7725168594       -1.4616922551
 O         -3.1233890981       -0.5440789222        2.2651456637
