  62
        -98.95134166
 C         -1.8645758994       -1.1971783211       -0.2949350785
 C         -2.9198796195       -0.4623800617        0.2925015519
 C         -3.1706704805        0.8636322582       -0.2808646179
 C         -2.4211480411        1.2988879086       -1.3101931482
 C         -2.5424261621        2.6349132185       -1.9904318982
 C         -1.7788926124        3.7523421989       -1.2660300884
 C         -2.4364964422        4.2551817686        0.0197934618
 H         -1.9371909026        5.1876633988        0.2908699117
 H         -3.4850226324        4.4882026080       -0.1718348078
 C         -2.3273895412        3.2818040586        1.2018174218
 H         -2.0335190012        3.8326852387        2.0991685617
 H         -1.5296559309        2.5610839990        1.0039966214
 C         -3.6196968907        2.5346911279        1.5344240823
 H         -4.3739657409        3.2463859875        1.8791767826
 H         -3.4103410100        1.8425690180        2.3544058722
 C         -4.2088013807        1.7266673176        0.3708389125
 H         -4.9846321602        1.0687345772        0.7710742628
 H         -4.6605800614        2.3965033674       -0.3605305473
 H         -0.7721755222        3.3935349295       -1.0352084488
 H         -1.6878570132        4.5926903790       -1.9585927685
 H         -2.1170817524        2.5167911088       -2.9893610483
 H         -3.5930896423        2.9099748480       -2.0881152877
 O         -1.4448242809        0.5442791091       -1.8760562586
 C         -1.1089012801       -0.6917827207       -1.3519574188
 O         -0.1440093600       -1.2446422902       -1.9169927692
 O         -3.6113326989       -0.8914779621        1.2570022822
 C         -1.4571125984       -2.5290837809        0.3084627813
 C         -0.0086243683       -2.4606319601        0.7282002308
 C          0.8972846222       -3.4970569696        0.5412031204
 C          2.2239999023       -3.3454666389        0.9080089999
 C          2.6814593118       -2.1532114187        1.4389148897
 C          1.7794478913       -1.1153071292        1.6405269501
 C          0.4441089713       -1.2887281599        1.3212187606
 H         -0.2418966891       -0.4718353703        1.4922412609
 N          2.1860710008        0.1421601510        2.1382414600
 S          2.0669490597        1.4228836110        1.0579766000
 O          2.5757154194        2.5714344013        1.7774015598
 O          0.7215177395        1.5270618403        0.5596279706
 C          3.2089848995        0.9908163716       -0.2422135204
 C          4.4959439692        1.4908918323       -0.1754737309
 C          5.4183001591        1.1035521529       -1.1332015113
 C          5.0421435691        0.2168763827       -2.1314187112
 C          3.7486928894       -0.2787397180       -2.1807343007
 C          2.8172834296        0.1074110814       -1.2278602903
 H          1.8038534398       -0.2637196191       -1.2547909899
 H          3.4477773895       -0.9681661182       -2.9532259306
 H          5.7597932490       -0.0894943469       -2.8760848914
 H          6.4239508389        1.4904363734       -1.0974649717
 H          4.7393057091        2.1801281425        0.6171939990
 H          3.1166011910        0.1395712415        2.5346065596
 H          3.7230937019       -2.0223120681        1.6911439593
 H          2.9159497427       -4.1593909585        0.7546430896
 H          0.5662500825       -4.4220178898        0.0978692605
 H         -2.0792939080       -2.6491048913        1.2083230916
 C         -1.7528282982       -3.6675440711       -0.6456656386
 C         -2.0965895972       -5.0286034613       -0.1197475685
 C         -3.1578217979       -4.1780267718       -0.7482064680
 H         -3.5363795181       -4.4550280620       -1.7205835579
 H         -3.8969040179       -3.7204423522       -0.1067995078
 H         -1.7490350969       -5.8943463111       -0.6631002386
 H         -2.1229757167       -5.1592784913        0.9515126915
 H         -1.1760569185       -3.6001368907       -1.5613983388
