  62
        -98.94220124
 C         -0.2780576766       -1.7868416613       -0.6071243085
 C          0.4173702262       -1.9662195904        0.6099592650
 C          1.8758626927       -1.7334870933        0.5800885944
 C          2.4565447130       -1.3413402297       -0.5690883200
 C          3.9045512121       -1.0716087144       -0.9282888531
 C          4.9953921967       -1.1905546186        0.1307573768
 C          5.0292739185       -0.0339703119        1.1338723723
 H          5.6762511181       -0.3116639331        1.9681571995
 H          5.4773354530        0.8323216410        0.6406254455
 C          3.6751554855        0.4103395224        1.6815283772
 H          3.8254898538        1.3180576115        2.2728772296
 H          3.0089715421        0.6823300409        0.8613116138
 C          2.9536871459       -0.5983353784        2.5697547882
 H          2.0257908970       -0.1249671266        2.9050702706
 H          3.5616296477       -0.8183834839        3.4506431592
 C          2.5853281394       -1.9235483576        1.8905625474
 H          3.4605966714       -2.5593798678        1.7790691251
 H          1.8784935992       -2.4469806185        2.5420701296
 H          4.9141361270       -2.1481936030        0.6370863535
 H          5.9520360186       -1.1939492426       -0.3981813033
 H          4.1313987808       -1.7684239980       -1.7423460887
 H          3.9372212600       -0.0684405879       -1.3661603446
 O          1.7317596333       -1.1441432868       -1.7118195735
 C          0.3640957648       -1.3443028606       -1.7602387329
 O         -0.1540527772       -1.0990899129       -2.8681238145
 H         -1.2458343027        0.5625630957       -0.3346886383
 C         -2.0475454050        0.2526977668        0.3196771785
 C         -2.4726567248       -1.0690682318        0.2877267335
 C         -3.5163335812       -1.4501009981        1.1207697721
 C         -4.0939997306       -0.5310531073        1.9801319499
 C         -3.6389943741        0.7735192593        2.0369486055
 C         -2.6019643879        1.1671702193        1.1987743446
 N         -2.1136088012        2.4829873878        1.2062474307
 S         -0.4680337153        2.7361760105        1.0208722460
 O          0.3105502146        1.6812399562        1.6225625868
 O         -0.2506149070        4.0665003942        1.5526873082
 C         -0.2182384413        2.7804435407       -0.7401584864
 C         -1.0712025879        3.5394451868       -1.5161949018
 C         -0.8649077208        3.5833238219       -2.8856027255
 C          0.1842966152        2.8749944318       -3.4518068525
 C          1.0364393044        2.1231409850       -2.6584015467
 C          0.8349482938        2.0776393556       -1.2889260330
 H          1.4610379198        1.4901847017       -0.6343932766
 H          1.8419616599        1.5573941389       -3.0988664854
 H          0.3386289916        2.9021923919       -4.5188604177
 H         -1.5250072861        4.1646693039       -3.5090695171
 H         -1.8775075629        4.0722782766       -1.0404875334
 H         -2.5102121403        3.0827445453        1.9152286354
 H         -4.0765713780        1.4817910376        2.7240318234
 H         -4.9012288886       -0.8398261239        2.6269917326
 H         -3.8711489931       -2.4675498981        1.1055609623
 C         -1.7787033146       -2.0067567232       -0.6705116285
 H         -2.0812411450       -1.7321489325       -1.6922243667
 C         -2.1110754541       -3.4659382462       -0.4384193883
 C         -3.3239464021       -4.0754775726       -1.0731990781
 C         -1.9573463858       -4.4302858744       -1.5747156803
 H         -1.5681454529       -5.4154987950       -1.3662188650
 H         -1.6385653194       -4.0273566224       -2.5252101108
 H         -3.8743714952       -4.8224178328       -0.5212348588
 H         -3.9392056703       -3.4386313060       -1.6905452841
 H         -1.8214174973       -3.8055676008        0.5493164185
 O         -0.1463928162       -2.3284222549        1.6759482505
