  62
        -98.94457383
 C          2.0181109754        1.2111394274       -0.6355725535
 C          1.5313132148        0.0576491397       -1.2968121431
 C          2.2660268241       -1.1917584931       -1.0407258896
 C          3.3159309516       -1.1862989535       -0.2020371205
 C          4.1304031407       -2.3909675266        0.1696946053
 C          3.5859913094       -3.0771075204        1.4293605958
 C          2.0821936705       -3.3509265644        1.3901225063
 H          1.5355777448       -2.4048426048        1.4181207690
 H          1.8264077375       -3.8879622395        2.3068603551
 C          1.6128655131       -4.1635018835        0.1753327088
 H          0.9084771465       -4.9244344327        0.5183736835
 H          2.4592173654       -4.6827638516       -0.2771197302
 C          0.8891788591       -3.3333167692       -0.8863921448
 H          0.1354658163       -2.7133425398       -0.3944028744
 H          0.3681593401       -4.0178162694       -1.5616304573
 C          1.7831843836       -2.4287543279       -1.7450133695
 H          1.1876656772       -2.0784563064       -2.5932300441
 H          2.6262722804       -3.0052477289       -2.1324273082
 H          3.7935742036       -2.4375064647        2.2905888894
 H          4.1238010686       -4.0175414672        1.5671671870
 H          4.1326825371       -3.0907029760       -0.6640581053
 H          5.1544722055       -2.0644137702        0.3607492943
 O          3.7462547942       -0.0643439037        0.4311586923
 C          3.1018509747        1.1457794747        0.2437912930
 O          3.5925544373        2.0910775422        0.8957169498
 H         -0.6253834700        0.9040085593       -0.1292927449
 C         -0.6163494626        1.7636609743        0.5171946267
 C          0.3385526225        2.7519900232        0.3221524821
 C          0.3366575312        3.8600814992        1.1596306040
 C         -0.5915606590        3.9617271399        2.1815038081
 C         -1.5126600304        2.9537795501        2.3994227312
 C         -1.5203751437        1.8399174776        1.5644593789
 N         -2.4423872921        0.8056064189        1.7638244089
 S         -2.0956355239       -0.8095476285        1.4525694340
 O         -2.7453140193       -1.5273313404        2.5316085666
 O         -0.6798023704       -1.0348870549        1.3033940813
 C         -2.9960434765       -1.1355945241       -0.0504659332
 C         -4.3382493032       -1.4415298628        0.0830522619
 C         -5.0938568018       -1.6806183517       -1.0519278571
 C         -4.4982054631       -1.6098907418       -2.3026341879
 C         -3.1524204587       -1.3031283206       -2.4202526796
 C         -2.3890794579       -1.0612815087       -1.2871759098
 H         -1.3412117523       -0.8178640092       -1.3754510710
 H         -2.6810679674       -1.2447847528       -3.3883051998
 H         -5.0841836817       -1.7957403352       -3.1890180879
 H         -6.1406963562       -1.9213075258       -0.9592579564
 H         -4.7558226111       -1.5006312397        1.0745684767
 H         -3.0058231934        0.8991915559        2.5957076430
 H         -2.2179903435        3.0211602883        3.2139816757
 H         -0.5850044562        4.8259057277        2.8285705931
 H          1.0808688086        4.6308060820        1.0217155931
 C          1.3754198704        2.5852773649       -0.7596910883
 H          2.1849214291        3.3039441995       -0.5522390804
 C          0.8468462467        2.8890832520       -2.1539812514
 C         -0.6095296888        2.9595466834       -2.4900417353
 C          0.2030234885        4.2159033019       -2.4304828468
 H          0.4427579955        4.7256371272       -3.3512899763
 H          0.0434611941        4.8732736928       -1.5888952447
 H         -1.3252131842        2.7764180471       -1.7039419112
 H         -0.9164285441        2.5819133243       -3.4531203580
 H          1.4988579337        2.4944451668       -2.9262397523
 O          0.5439875048        0.0485094751       -2.0763759714
