  62
        -98.94477851
 C          2.1821102593        1.3951133952        0.1776419716
 C          2.0313535662        0.4775511052       -0.8903556700
 C          3.0298253838       -0.5992334472       -0.9502345442
 C          3.9871197585       -0.6831796730       -0.0089798670
 C          5.0922363433       -1.7029323964        0.0462301906
 C          4.6829435112       -3.0411300324        0.6764272283
 C          3.7792138190       -3.9195648303       -0.1894587105
 H          4.2248356862       -4.0340203412       -1.1781393890
 H          3.7564249502       -4.9082103005        0.2731678635
 C          2.3387808105       -3.4068140323       -0.3267925690
 H          1.6467767601       -4.2399470042       -0.1823420514
 H          2.1373318008       -2.6756660004        0.4598988209
 C          2.0172246455       -2.7784406685       -1.6829967057
 H          2.0901318498       -3.5376057323       -2.4650686365
 H          0.9865329668       -2.4151481914       -1.6642075502
 C          2.9212768304       -1.5992928035       -2.0625384755
 H          3.9106395121       -1.9596768386       -2.3440459267
 H          2.4775597589       -1.0916874524       -2.9227778810
 H          4.1923303530       -2.8421960721        1.6319027776
 H          5.6007654929       -3.5960474214        0.8839071643
 H          5.4809248084       -1.8764572973       -0.9578603876
 H          5.8865559984       -1.2648631038        0.6544353984
 O          4.0735672640        0.1961489544        1.0238892694
 C          3.1828143685        1.2481526934        1.1426057140
 O          3.3834205033        1.9784962155        2.1333108976
 H         -0.8650811671        2.0800798012       -1.3136148031
 C         -1.0964868061        1.9161206733       -0.2736340140
 C         -0.1268928383        2.1349756958        0.6914123446
 C         -0.4410896208        1.8758325274        2.0227572623
 C         -1.7020580289        1.4334149161        2.3773584546
 C         -2.6713724597        1.2213309919        1.4116634862
 C         -2.3562168858        1.4478038792        0.0784882777
 N         -3.3105414821        1.2026802165       -0.9195278457
 S         -4.3790091950       -0.0655391706       -0.7472427378
 O         -4.7242095457       -0.4548818687       -2.0969599638
 O         -5.4856127853        0.3465560566        0.0821576444
 C         -3.5020208079       -1.3903929593        0.0706363412
 C         -2.2132213966       -1.7036030433       -0.3134084627
 C         -1.5626952938       -2.7469189735        0.3261112885
 C         -2.2063495627       -3.4615621802        1.3243012617
 C         -3.5024578153       -3.1387389827        1.6938556138
 C         -4.1561986368       -2.0923768936        1.0637748043
 H         -5.1595047604       -1.7985134367        1.3269724819
 H         -4.0027210912       -3.6943875181        2.4705300424
 H         -1.6916495610       -4.2716646114        1.8163073732
 H         -0.5512789624       -2.9923806574        0.0444552538
 H         -1.7199469872       -1.1349920944       -1.0866597786
 H         -2.9499773063        1.2661688483       -1.8599478759
 H         -3.6631124208        0.8893343453        1.6738082539
 H         -1.9354867140        1.2507173199        3.4151471602
 H          0.3199342143        2.0252330195        2.7760516815
 C          1.2639480598        2.5978460142        0.3331265790
 H          1.6589780856        3.1635891360        1.1871830868
 C          1.3054281192        3.4854249633       -0.8947529969
 C          0.7545571131        4.8761453840       -0.8113961049
 C          2.2338089390        4.6604339073       -0.9171732931
 H          2.7271935178        4.9094399738       -1.8448624737
 H          2.8408192180        4.8352871019       -0.0407879194
 H          0.2305610062        5.2772439163       -1.6655358763
 H          0.3552588368        5.1965765280        0.1390585426
 H          1.1769538974        2.9450121136       -1.8241662973
 O          1.1286343257        0.5482628885       -1.7653857482
