  62
        -98.94630717
 C         -2.5752821987       -0.0014015210       -0.4193972703
 C         -2.1816339088       -0.5711930209        0.8155532597
 C         -1.8812657288       -2.0079331009        0.7870132998
 C         -1.9803831486       -2.6895801410       -0.3688642801
 C         -1.7676359185       -4.1687590910       -0.5500431600
 C         -0.3002681585       -4.5793874109       -0.7275587499
 C          0.5454028114       -4.5202788008        0.5444668402
 H          0.0353249913       -5.0553765308        1.3463386702
 H          1.4767648314       -5.0506109708        0.3366668703
 C          0.8840760413       -3.0970025408        1.0070140801
 H          1.9420097813       -3.0378796307        1.2755379002
 H          0.7390320813       -2.3920199408        0.1843561301
 C          0.0935211212       -2.6048361607        2.2193605000
 H          0.3690940911       -3.1912247606        3.0997268001
 H          0.3838421111       -1.5658945707        2.3969562900
 C         -1.4308043788       -2.6603242408        2.0589044599
 H         -1.7743822788       -3.6947662108        2.0974103100
 H         -1.8804750889       -2.1091228408        2.8889446299
 H          0.1515739715       -3.9414071909       -1.4908916599
 H         -0.2917241184       -5.6065799209       -1.0999031798
 H         -2.1959272786       -4.7042047609        0.2981135500
 H         -2.3155638385       -4.4494999911       -1.4522801200
 O         -2.3383573686       -2.0982295411       -1.5403922702
 C         -2.6227643386       -0.7440909311       -1.5974992503
 O         -2.9140370985       -0.3272577512       -2.7388415303
 H         -0.3286704087        1.0010156691       -0.9564075402
 C         -0.4631274388        1.9035140391       -0.3781665403
 C         -1.7450959989        2.3116091991       -0.0353503704
 C         -1.8942133690        3.4829337391        0.6970239995
 C         -0.7827106391        4.2059367692        1.0938632495
 C          0.4932376210        3.7721820392        0.7847103197
 C          0.6524845011        2.6082150592        0.0418089298
 N          1.9353302912        2.1352603692       -0.3075678901
 S          2.2167865012        0.4875003692       -0.0323892200
 O          1.5810537013       -0.2846481009       -1.0704115000
 O          1.8756416011        0.1585013593        1.3322188500
 C          3.9859398712        0.4329360093       -0.2504900498
 C          4.8106535311        0.3646177394        0.8559629003
 C          6.1842213212        0.3557398495        0.6686702204
 C          6.7061228013        0.4184380094       -0.6144419896
 C          5.8652196713        0.4858462393       -1.7157186797
 C          4.4913221913        0.4936415792       -1.5352834198
 H          3.7978701514        0.5365359592       -2.3590999298
 H          6.2742289414        0.5321748692       -2.7121120796
 H          7.7750516413        0.4124216594       -0.7578303795
 H          6.8400102011        0.3001226495        1.5225329804
 H          4.3579680611        0.3111740295        1.8331092802
 H          2.6645780311        2.6756119593        0.1417407899
 H          1.3594043509        4.3261416693        1.1145945697
 H         -0.9119697691        5.1121419192        1.6661024795
 H         -2.8807497490        3.8247761991        0.9646738094
 C         -2.9130707288        1.4756072090       -0.5011020205
 H         -3.0804364887        1.6900666389       -1.5677879905
 C         -4.1926264489        1.7601900990        0.2600614794
 C         -5.1299883489        2.8340359589       -0.2024096207
 C         -5.5017028288        1.3922824789       -0.3692226407
 H         -6.2778607988        0.9803438189        0.2579414793
 H         -5.4682447087        0.9641942388       -1.3608154206
 H         -5.6571292490        3.4133247389        0.5406360592
 H         -4.8570689388        3.3896716589       -1.0868761407
 H         -4.0846836990        1.5938370690        1.3258896794
 O         -2.1091780389        0.0805335592        1.8909570097
