  62
        -98.93046193
 C          1.4330767144        1.7283867500       -0.1604454745
 C          1.3436368508        0.3317079379        0.0438963864
 C          2.5927118346       -0.3612643220        0.4340669022
 C          3.7208971836        0.3554900967        0.5832567161
 C          5.1020736427       -0.1348112674        0.9293229456
 C          5.8038819797       -0.8177927814       -0.2555247911
 C          4.9305738506       -1.7867081753       -1.0483344826
 H          5.5072929079       -2.1178043217       -1.9162025790
 H          4.0561315508       -1.2532992259       -1.4253119187
 C          4.4787447559       -3.0294403715       -0.2850740869
 H          5.3586591028       -3.5763040016        0.0611993323
 H          3.9487090383       -3.6692859041       -0.9949867361
 C          3.5568066043       -2.7802450817        0.9105608153
 H          4.1181473127       -2.4300456867        1.7724469609
 H          3.1250303984       -3.7442612347        1.1939568468
 C          2.3867304903       -1.8442320421        0.6254674917
 H          1.6575520992       -1.9343998553        1.4391502137
 H          1.8589130278       -2.1903354730       -0.2697605418
 H          6.6849171802       -1.3407787062        0.1205903815
 H          6.1430042709       -0.0378098034       -0.9418156469
 H          5.6831904520        0.7442558118        1.2169123821
 H          5.0590997078       -0.7975731578        1.7884324764
 O          3.7543067784        1.7057987957        0.3862468324
 C          2.6339042069        2.4180997115        0.0158639546
 O          2.8253915026        3.6446551950       -0.1222379267
 H         -2.0130983572        0.8343686972       -0.7375169391
 C         -1.9448226802        1.4111748400        0.1648207064
 C         -0.9114011096        2.3113963440        0.3722360529
 C         -0.8739671975        2.9985519092        1.5863176584
 C         -1.8346589854        2.7935439770        2.5566890226
 C         -2.8663751244        1.8978899056        2.3402412026
 C         -2.9186696418        1.2086067032        1.1348969588
 N         -3.9711633727        0.3239889749        0.8842124853
 S         -4.0004853586       -0.8245769008       -0.3135653841
 O         -3.9677781033       -0.1969705184       -1.6114304103
 O         -5.1989406356       -1.5846410007       -0.0175739238
 C         -2.5956557957       -1.8989177273       -0.0986297627
 C         -1.9170622279       -2.3392779330       -1.2145847720
 C         -0.8855069621       -3.2494680300       -1.0570856657
 C         -0.5532706173       -3.7020627141        0.2088259909
 C         -1.2404887753       -3.2443004606        1.3214127189
 C         -2.2747855237       -2.3367006854        1.1693430822
 H         -2.8271089292       -1.9668152748        2.0182254559
 H         -0.9711170304       -3.5901771993        2.3070046329
 H          0.2515662313       -4.4103311709        0.3303810498
 H         -0.3420823048       -3.5967599554       -1.9219380470
 H         -2.2032004398       -1.9568966835       -2.1821352784
 H         -4.5748227069        0.1078230759        1.6611715749
 H         -3.6230739468        1.7348934240        3.0922286903
 H         -1.7811014060        3.3348012194        3.4892541233
 H         -0.0653853016        3.6946806750        1.7647259594
 C          0.2302947754        2.5684801327       -0.5781973173
 H          0.5493722302        3.6079512297       -0.4013154972
 C          0.0258675138        2.4732254032       -2.0849950495
 C         -0.4503139440        1.2629572229       -2.8282216817
 C         -1.2966085835        2.5006266485       -2.7890542368
 H         -1.3749398126        3.0895248528       -3.6913826735
 H         -2.2007165832        2.4850146866       -2.2014606151
 H         -0.7501998256        0.3965508241       -2.2612534950
 H          0.0502124485        1.0148999420       -3.7540808898
 H          0.8270607065        3.0189027916       -2.5801096880
 O          0.2864748834       -0.3339091436       -0.0895178144
