  62
        -98.94947649
 C         -1.0329091147       -1.7346768473        0.1079904329
 C         -1.6762839146       -0.9697190934        1.1093411861
 C         -2.8474315259       -0.1995359989        0.6765216450
 C         -3.2327302818       -0.2410888141       -0.6118977398
 C         -4.4059121962        0.4882459218       -1.2080596291
 C         -4.1065831512        1.9493375415       -1.5712087945
 C         -4.0190375621        2.9104300858       -0.3848783795
 H         -4.0515625758        3.9229520246       -0.7922901614
 H         -4.8965453478        2.7851419357        0.2510673919
 C         -2.7430470286        2.7632681264        0.4555468259
 H         -1.9827752138        2.2389657454       -0.1297879338
 H         -2.3360618287        3.7545768925        0.6720976686
 C         -2.9445869184        2.0557773522        1.7959676004
 H         -3.5925645753        2.6637905397        2.4318804931
 H         -1.9731472673        1.9748697743        2.2897498602
 C         -3.5497412392        0.6498432572        1.6937086111
 H         -3.4381600276        0.1600824838        2.6646079812
 H         -4.6115847727        0.7172793441        1.4570708419
 H         -4.9067120753        2.2921519677       -2.2318293359
 H         -3.1698696350        1.9864882322       -2.1336819037
 H         -5.2535292937        0.4479049213       -0.5227771947
 H         -4.6714402548       -0.0469674902       -2.1223738509
 O         -2.5923659259       -0.9938650501       -1.5450090734
 C         -1.4729302921       -1.7458256227       -1.2162585262
 O         -0.9781922675       -2.3733055759       -2.1723411620
 O         -1.2911696580       -0.9329330778        2.3095106742
 C          0.2048904911       -2.5275768405        0.4749567382
 C          1.4228790800       -2.0531705717       -0.2835350114
 C          2.5360948902       -2.8637761670       -0.4804267405
 C          3.6464010817       -2.3787310789       -1.1487447342
 C          3.6835547010       -1.0786228313       -1.6209388090
 C          2.5765878396       -0.2603923305       -1.4296502077
 C          1.4654527830       -0.7537190512       -0.7645129787
 H          0.6031107643       -0.1171493123       -0.6548798961
 N          2.5562119645        1.0588319903       -1.9004371663
 S          1.6517409716        2.2306828857       -1.1302656093
 O          0.2453321828        2.0337417110       -1.3775275739
 O          2.2084015098        3.4762385772       -1.6143213160
 C          2.0306741245        2.0354150255        0.6012640944
 C          1.0790060706        1.5564953142        1.4763342165
 C          1.4240156672        1.3513052941        2.8025127740
 C          2.7107359894        1.6356481764        3.2312715976
 C          3.6543182144        2.1321571602        2.3437825367
 C          3.3156548954        2.3297646001        1.0155251512
 H          4.0197721046        2.7186570781        0.2980846654
 H          4.6525380553        2.3583877815        2.6823384698
 H          2.9775188703        1.4702693594        4.2631545372
 H          0.6832856293        0.9520097939        3.4776820488
 H          0.0853903769        1.3394515444        1.1178117484
 H          3.4306180218        1.4111329699       -2.2584989307
 H          4.5506201873       -0.7035694706       -2.1422152988
 H          4.5000009238       -3.0215482189       -1.3008452565
 H          2.5287052496       -3.8782694114       -0.1163280310
 H          0.3754530352       -2.3219333621        1.5435488507
 C         -0.0420758416       -4.0144994564        0.3031313170
 C          0.5411077446       -5.0044774306        1.2657543826
 C         -0.9289501582       -4.7169964871        1.2861999119
 H         -1.6122649179       -5.4683470051        0.9199715500
 H         -1.3242505044       -4.1286701852        2.1015324510
 H          0.8687708838       -5.9602689731        0.8852299456
 H          1.1377508348       -4.6223166120        2.0803309449
 H         -0.1270291464       -4.3009521548       -0.7391269274
