  62
        -98.94617243
 C         -1.5318396660       -1.4718567500       -0.0396241990
 C         -1.4900773528       -0.1045932268        0.3269124744
 C         -2.7764263483        0.4897625738        0.7185729682
 C         -3.8809666735       -0.2782304539        0.7318569143
 C         -5.2621700388        0.2157522798        1.0494429655
 C         -5.9923552391        0.6757637469       -0.2204162232
 C         -5.1707260012        1.6182029592       -1.1002315059
 H         -4.3112696616        1.0740682130       -1.4984275157
 H         -5.7970753133        1.8958158114       -1.9509265268
 C         -4.6821305499        2.8876599387       -0.3886055213
 H         -5.2640735462        3.0494532032        0.5194911329
 H         -4.8581834926        3.7444057013       -1.0425992618
 C         -3.1918217553        2.8877370419       -0.0425034871
 H         -2.6092893970        2.6334130926       -0.9312016535
 H         -2.9150888253        3.9024045640        0.2555402472
 C         -2.7730175160        1.9451750278        1.0924260756
 H         -1.7374165274        2.1790615923        1.3562355830
 H         -3.4019148706        2.1205053492        1.9674675117
 H         -6.9214675260        1.1670607672        0.0745633034
 H         -6.2483034934       -0.2069226303       -0.8112292347
 H         -5.8245125388       -0.6007470184        1.5055521075
 H         -5.1940427000        1.0376712975        1.7594973661
 O         -3.8728636147       -1.5973084863        0.4068544013
 C         -2.7035177053       -2.2249859067        0.0059516355
 O         -2.8347299763       -3.4354277559       -0.2687297786
 H          2.2987568137       -1.1182604403       -0.7786312656
 C          2.0526825079       -1.3887644633        0.2335130562
 C          0.8228075320       -1.9479076980        0.5389457434
 C          0.5667107874       -2.3176802560        1.8573808709
 C          1.5096828294       -2.1105583019        2.8446104801
 C          2.7228085628       -1.5159963104        2.5426669859
 C          2.9922644287       -1.1549903234        1.2286541658
 N          4.2150070045       -0.5626172339        0.8880658828
 S          4.3286341931        0.5226306920       -0.3748161143
 O          4.3134380830       -0.1813116757       -1.6336864862
 O          5.5427888111        1.2601227488       -0.0902643222
 C          2.9285746167        1.6213849898       -0.2652949798
 C          2.6869923054        2.2727511742        0.9266388295
 C          1.6244026138        3.1568926859        1.0019294235
 C          0.8287377006        3.3778342261       -0.1102617967
 C          1.0869274248        2.7192272794       -1.3004238719
 C          2.1455624225        1.8307908110       -1.3806546656
 H          2.3753553781        1.2902646692       -2.2858847258
 H          0.4602658053        2.8859592547       -2.1626020029
 H         -0.0042666947        4.0605310791       -0.0480878396
 H          1.4144287114        3.6652515407        1.9296868964
 H          3.3244499278        2.0848219059        1.7757265556
 H          4.8023877481       -0.3035660788        1.6662628374
 H          3.4544482090       -1.3366548089        3.3155461235
 H          1.2954051488       -2.4012859393        3.8621511780
 H         -0.3901523974       -2.7621389284        2.0970916143
 C         -0.2551366936       -2.1555821957       -0.4958274032
 H         -0.4811622740       -3.2298912317       -0.5569568490
 C          0.1298708807       -1.6553103862       -1.8725648913
 C          0.9681414229       -2.5054418695       -2.7777211481
 C         -0.4830851472       -2.2887155979       -3.0834162794
 H         -0.7468215485       -1.6579574064       -3.9191518215
 H         -1.1691392625       -3.1075253043       -2.9213911597
 H          1.7085128277       -2.0242813058       -3.3995741410
 H          1.2699844414       -3.4756056598       -2.4126012004
 H          0.2841318225       -0.5818730578       -1.8947742950
 O         -0.4383237800        0.5826866038        0.3268426760
