  62
        -98.93430154
 C         -0.7191612021       -1.9802736896        0.0378529226
 C         -1.3864769383       -1.1781017214        0.9977024233
 C         -2.5005099147       -0.3382114938        0.5251105729
 C         -2.8170586099       -0.3591671520       -0.7817884054
 C         -3.9036222627        0.3985696902       -1.5015909424
 C         -4.0518501856        1.8860903239       -1.1456851372
 C         -5.3231772191        2.1994514055       -0.3541218758
 H         -5.5797478921        3.2495475834       -0.5104004640
 H         -6.1403195937        1.6004129315       -0.7615099923
 C         -5.2263736313        1.9658727556        1.1525068767
 H         -4.5904016216        2.7350475165        1.5956910953
 H         -6.2282143415        2.0907900543        1.5698388349
 C         -4.6887421622        0.5954589537        1.5690220541
 H         -5.0380122574        0.3948934039        2.5839831310
 H         -5.0997194010       -0.1858115694        0.9306938684
 C         -3.1551087490        0.5139860204        1.5781732903
 H         -2.8161483565        0.0861517617        2.5269057306
 H         -2.7276113548        1.5201586142        1.5286211804
 H         -3.1688495119        2.2267296278       -0.6060110705
 H         -4.0879108976        2.4481738530       -2.0806395541
 H         -4.8535692267       -0.1183663006       -1.3422196075
 H         -3.6641567000        0.2945937596       -2.5625102637
 O         -2.1557449606       -1.1504002083       -1.6707491824
 C         -1.0734327823       -1.9361685928       -1.3099469040
 O         -0.5495620369       -2.5295277631       -2.2751922456
 O         -1.0576236943       -1.1638163056        2.2141670559
 C          0.4789112062       -2.7628766382        0.5520809291
 C          1.6794076059       -1.8455012251        0.5427328716
 C          2.4565282001       -1.6490708435        1.6771585576
 C          3.4844957627       -0.7218144488        1.6795934718
 C          3.7312726487        0.0524891020        0.5601393418
 C          2.9630601322       -0.1428961684       -0.5792089480
 C          1.9700554888       -1.1070356018       -0.5966232434
 H          1.3743655836       -1.2384685988       -1.4892636828
 N          3.1324924451        0.7575239337       -1.6774688198
 S          1.8645552558        1.8832087893       -1.6671994518
 O          0.6228955499        1.2712541993       -2.0944278686
 O          2.3074056989        2.9973036072       -2.4775244317
 C          1.7650251662        2.3501054899        0.0452525908
 C          2.6680899351        3.2631391049        0.5529526437
 C          2.6195486737        3.5664562690        1.9042332166
 C          1.6823333945        2.9491295069        2.7195844521
 C          0.7786400306        2.0389899108        2.1925086370
 C          0.8169713206        1.7389875326        0.8411242786
 H          0.1327399763        1.0304466485        0.3983149106
 H          0.0536266678        1.5410803371        2.8173216377
 H          1.6535117391        3.1766032377        3.7734521255
 H          3.3166190388        4.2762000529        2.3196544596
 H          3.3806857548        3.7132187619       -0.1184501285
 H          3.1052439785        0.2835853957       -2.5717852320
 H          4.4946746547        0.8126770179        0.5578554869
 H          4.0773478512       -0.5796606350        2.5693484291
 H          2.2306871855       -2.2091544815        2.5719251342
 H          0.2515834065       -3.0000149620        1.6004811713
 C          0.7706917827       -4.0550477971       -0.1800055562
 C          1.5394964691       -5.1306025630        0.5257828955
 C          0.0787489996       -5.3137032186        0.2459065868
 H         -0.2216938163       -6.0156920537       -0.5170615073
 H         -0.6120626876       -5.2481720502        1.0737175152
 H          2.2486840324       -5.7113217535       -0.0434894559
 H          1.8390785864       -4.9466201994        1.5461177668
 H          0.9466549979       -3.9211301337       -1.2392050592
