  62
        -98.93871543
 C         -1.9922827429       -1.3608499559        0.3660258803
 C         -2.2322120666       -0.4657314883       -0.7035989484
 C         -2.9818047677        0.7606682003       -0.3717302625
 C         -3.3322522813        0.9971247475        0.9038093372
 C         -4.1311005206        2.1447458903        1.4710540031
 C         -3.8684201030        3.5476526859        0.9099823894
 C         -2.4089818193        3.8258182895        0.5213572611
 H         -2.0859663596        4.7523924507        1.0000299881
 H         -1.7686412290        3.0231412213        0.8917468542
 C         -2.2146299742        3.9781489759       -0.9892561463
 H         -1.2937055253        4.5357558437       -1.1738043898
 H         -3.0386112827        4.5725469987       -1.3898755306
 C         -2.1198900020        2.6660384476       -1.7659778982
 H         -2.0858183959        2.9064190931       -2.8310307345
 H         -1.1867974492        2.1517578570       -1.5214771368
 C         -3.2724501976        1.6779072968       -1.5254198699
 H         -4.2182436792        2.1983341439       -1.3942622366
 H         -3.3497458386        1.0338140882       -2.4054791172
 H         -4.5074647296        3.7196939346        0.0452087508
 H         -4.1837238019        4.2563174318        1.6779273528
 H         -3.9194640253        2.1342779757        2.5433544713
 H         -5.1925151736        1.9060286592        1.3537048035
 O         -3.0072777191        0.1414812166        1.9163760594
 C         -2.3483563718       -1.0504472085        1.6773096630
 O         -2.1308800379       -1.7320009739        2.7014868703
 O         -1.8627717561       -0.6796818407       -1.8857562822
 C         -1.2893515668       -2.6872435807        0.1266508509
 C          0.1484964969       -2.4287774062       -0.2544374336
 C          0.6944843210       -2.7546118667       -1.4878233728
 C          2.0224859706       -2.4707334410       -1.7600221305
 C          2.8308688082       -1.8688105999       -0.8137709241
 C          2.2922175717       -1.5348139194        0.4233346788
 C          0.9600856418       -1.8107842178        0.6903684346
 H          0.5367109287       -1.5522128582        1.6533621616
 N          3.1028493413       -0.9388662824        1.4048254841
 S          4.1373121430        0.3026874776        0.9781965771
 O          5.2630829663       -0.2362216389        0.2574959214
 O          4.4409097355        0.9776434692        2.2195571029
 C          3.1864878042        1.3699894606       -0.0863865335
 C          2.2091604288        2.1540846053        0.4939909714
 C          1.4388038470        2.9735400709       -0.3137554070
 C          1.6499535285        2.9858701676       -1.6843218751
 C          2.6325312192        2.1906645739       -2.2521410182
 C          3.4117952593        1.3744964922       -1.4475861386
 H          4.1937948241        0.7517751186       -1.8493866415
 H          2.7933482628        2.2035458015       -3.3179631607
 H          1.0447411390        3.6203784637       -2.3125201758
 H          0.6759047102        3.5951649733        0.1270002404
 H          2.0782987951        2.1240538565        1.5642352489
 H          2.6142086658       -0.7250193756        2.2614903144
 H          3.8709888291       -1.6630263076       -1.0061499967
 H          2.4358681152       -2.7284586490       -2.7230835144
 H          0.0808519512       -3.2240574886       -2.2381048229
 H         -1.2866294165       -3.2025572685        1.0979496142
 C         -2.0490879287       -3.5358401949       -0.8697232779
 C         -1.8340389614       -5.0182401455       -0.8947584391
 C         -3.1209471353       -4.4560559647       -0.3717187173
 H         -4.0154451180       -4.5740687154       -0.9647723282
 H         -3.2983450041       -4.4861746692        0.6938324966
 H         -1.8464296484       -5.5266664959       -1.8467339935
 H         -1.1360174420       -5.4332177788       -0.1832624661
 H         -2.2278175024       -3.0284798749       -1.8096278374
