  62
        -98.94088377
 C         -2.7013966368       -0.1813568635       -0.2161090872
 C         -2.2831116273       -0.9789903162        0.8783364015
 C         -1.8357997397       -2.3400607110        0.5387647157
 C         -1.8243602201       -2.7518859563       -0.7403986141
 C         -1.4460395220       -4.1233274092       -1.2328323266
 C          0.0624413017       -4.3381547168       -1.4113531634
 C          0.8532619966       -4.4873309416       -0.1114520461
 H          0.3745569434       -5.2339463797        0.5233296017
 H          1.8412929371       -4.8680413306       -0.3775021144
 C          1.0262512924       -3.1776110165        0.6691330368
 H          0.8346591629       -2.3262305221        0.0116710353
 H          2.0628676455       -3.0810630188        1.0030635409
 C          0.1471283457       -3.0436118396        1.9126155264
 H          0.3142199741       -2.0449115784        2.3254699477
 H          0.4552574104       -3.7776194900        2.6617731832
 C         -1.3556152254       -3.2145767975        1.6578822509
 H         -1.5835597982       -4.2598860420        1.4463987652
 H         -1.8895252567       -2.9140826321        2.5633247309
 H          0.4679674195       -3.5017257985       -1.9856132427
 H          0.1945141757       -5.2480031801       -2.0018752343
 H         -1.9288798538       -4.2438678354       -2.2051860871
 H         -1.8434691935       -4.8766794736       -0.5514143063
 O         -2.2123753849       -1.9477504725       -1.7667113142
 C         -2.6253799540       -0.6491570878       -1.5306426082
 O         -2.9270684834       -0.0145959697       -2.5634538647
 O         -2.2969782330       -0.6131000048        2.0815273889
 C         -3.1524618677        1.2672868332       -0.0960284192
 C         -1.9952668161        2.1732470350       -0.4365820071
 C         -2.1578481582        3.2831362818       -1.2570608744
 C         -1.0709990547        4.0687783519       -1.5985752169
 C          0.1986894913        3.7458163597       -1.1551787283
 C          0.3703446185        2.6385011317       -0.3319775771
 C         -0.7274348459        1.8797631697        0.0428663878
 H         -0.5797798650        1.0274621581        0.6892238462
 N          1.6416013502        2.2613110535        0.1325507970
 S          1.9299011058        0.5945151714        0.2447449486
 O          1.3295801365       -0.0831462608       -0.8821342411
 O          1.5453507630        0.1541575761        1.5602558413
 C          3.7079271678        0.5603292828        0.1084239983
 C          4.4655371108        0.8294660550        1.2328438987
 C          5.8469606161        0.8378979996        1.1233540222
 C          6.4446306118        0.5781944368       -0.1011889311
 C          5.6715264852        0.3060375298       -1.2198600862
 C          4.2890928436        0.2979858090       -1.1175177604
 H          3.6467493255        0.0840121109       -1.9569242125
 H          6.1383658134        0.1002550402       -2.1696000449
 H          7.5199235329        0.5849488810       -0.1837975522
 H          6.4511447396        1.0454401392        1.9916380793
 H          3.9552799345        1.0143745151        2.1637227892
 H          2.3932504022        2.7433318474       -0.3420220344
 H          1.0516408757        4.3390764543       -1.4478880231
 H         -1.2096594455        4.9272290908       -2.2381215259
 H         -3.1380172466        3.5118817887       -1.6490169616
 H         -3.9150865709        1.4073492361       -0.8807321965
 C         -3.8030585363        1.6112064308        1.2343989757
 C         -3.1047720272        2.3858449176        2.3069199950
 C         -4.2130587666        3.0243166656        1.5281003555
 H         -5.1593069973        3.1930447913        2.0191703384
 H         -3.9436527842        3.7829680164        0.8091957540
 H         -3.2816089308        2.0919896031        3.3300551592
 H         -2.0919970952        2.7088811387        2.1200362611
 H         -4.4760205836        0.8290349316        1.5686115783
