  62
        -98.93631240
 C          2.5640162932        0.0311734873        0.4575209301
 C          1.9864457613       -0.5503226807       -0.6949302094
 C          1.4072335057       -1.8962301167       -0.5342331877
 C          1.5185270330       -2.5184243135        0.6529683158
 C          0.9802518740       -3.8612706394        1.0803086480
 C          1.0510285857       -5.0115636836        0.0656578977
 C         -0.3102727487       -5.3937112175       -0.5189700036
 H         -0.2671950851       -6.4323708882       -0.8542716458
 H         -1.0561545739       -5.3367495346        0.2764569542
 C         -0.7736068739       -4.5458545902       -1.7024481484
 H         -1.8072738282       -4.8212146571       -1.9238890496
 H         -0.1746053309       -4.7929228758       -2.5816864332
 C         -0.7049420917       -3.0331161558       -1.4871013958
 H         -1.0417552643       -2.7617006798       -0.4856378355
 H         -1.3976507430       -2.5521702171       -2.1815811815
 C          0.6899880292       -2.4399175437       -1.7380546219
 H          1.3271044807       -3.1707222686       -2.2447161155
 H          0.6013748380       -1.5847084982       -2.4154532035
 H          1.7513888798       -4.7626373929       -0.7294508441
 H          1.4480406206       -5.8848515599        0.5859316555
 H          1.5522911465       -4.1206039420        1.9746845349
 H         -0.0535440536       -3.7138913425        1.4060429807
 O          2.1575347576       -1.9482545201        1.7159600698
 C          2.6391946729       -0.6533856131        1.6665933559
 O          3.1158434835       -0.2360674793        2.7434187839
 H          0.4218895305        1.1397835710        0.9601713646
 C          0.5853785029        2.0100599061        0.3419767502
 C          1.8771570773        2.3548738925       -0.0329600656
 C          2.0580764777        3.4918037014       -0.8107715203
 C          0.9673558209        4.2358200627       -1.2267973275
 C         -0.3204314655        3.8501297973       -0.9025394005
 C         -0.5110403280        2.7222408973       -0.1130362627
 N         -1.8051409451        2.2849738649        0.2441923531
 S         -2.1401791353        0.6444343886       -0.0269248126
 O         -1.4844801428       -0.1550953290        0.9772665968
 O         -1.8746321197        0.3109996163       -1.4073458576
 C         -3.8999457108        0.6425004412        0.2692468492
 C         -4.3471649500        0.6875024067        1.5759916213
 C         -5.7114315759        0.7204894661        1.8168670152
 C         -6.6012407699        0.7083613158        0.7527330552
 C         -6.1378786873        0.6606918595       -0.5532788146
 C         -4.7742311451        0.6291730499       -0.8007010328
 H         -4.3669049324        0.5844548736       -1.7979980686
 H         -6.8316448421        0.6478327123       -1.3783394069
 H         -7.6624750636        0.7336115977        0.9432780878
 H         -6.0748705716        0.7551245323        2.8312560271
 H         -3.6179874955        0.6866015895        2.3695120929
 H         -2.5199646545        2.8390706896       -0.2121295313
 H         -1.1708885000        4.4119387214       -1.2590377194
 H          1.1217035041        5.1153959070       -1.8334202593
 H          3.0529502539        3.7878024840       -1.1018292646
 C          3.0201957212        1.4774900058        0.4239280976
 H          3.2709477107        1.7432253731        1.4621617276
 C          4.2616031436        1.6291661510       -0.4320934886
 C          5.3038055919        2.6493973008       -0.0871683877
 C          5.5805294366        1.1929847946        0.1293351308
 H          6.2799140246        0.6945727207       -0.5247846350
 H          5.5828387528        0.8145912315        1.1414429838
 H          5.1335518907        3.2645165637        0.7835497309
 H          5.8192200731        3.1517610331       -0.8919059069
 H          4.0682523308        1.4223810020       -1.4785830557
 O          1.9404591556        0.0371715220       -1.8088808159
