  62
        -98.93589743
 C          2.3690090422        0.7381368727        0.2306318950
 C          2.4631697834       -0.6768829370        0.2781681482
 C          3.6656838820       -1.2757658562       -0.3143935792
 C          4.5901129270       -0.4722421465       -0.8708226513
 C          5.8876375425       -0.9369840158       -1.4648372514
 C          7.0086821698       -0.9433387318       -0.4161916069
 C          6.6287255476       -1.6409798031        0.8897849938
 H          7.5040315927       -1.6103338191        1.5421894011
 H          5.8397880242       -1.0686912813        1.3832711497
 C          6.1672426650       -3.0953388813        0.7214456696
 H          6.6514462438       -3.7073146111        1.4852978404
 H          6.4865476521       -3.4758849250       -0.2493789592
 C          4.6594020045       -3.3041159254        0.8751956993
 H          4.4704309317       -4.3779889958        0.9557327575
 H          4.3169805805       -2.8423116649        1.8048835206
 C          3.7912730621       -2.7727686755       -0.2725739339
 H          4.1665836213       -3.1541306837       -1.2245940974
 H          2.7760146838       -3.1538262473       -0.1262843266
 H          7.2735594530        0.0912637440       -0.1868400835
 H          7.8837807855       -1.4307211528       -0.8495976064
 H          5.7541618019       -1.9356945849       -1.8759651125
 H          6.1601655725       -0.2542675681       -2.2712570854
 O          4.4629791391        0.8762895412       -0.9112514228
 C          3.3578847696        1.5220507770       -0.3662893932
 O          3.3984103521        2.7591062326       -0.4872130076
 H         -1.4394209285        0.5335050299        1.0190421562
 C         -1.2376252005        1.0499308556        0.0926388418
 C          0.0367384518        1.5315254243       -0.1696388065
 C          0.2761957603        2.1723846440       -1.3817456080
 C         -0.7413568146        2.3218727667       -2.3058438170
 C         -2.0091567026        1.8332610342       -2.0440990626
 C         -2.2607359645        1.1954364796       -0.8347221328
 N         -3.5529297657        0.7331820018       -0.5310937715
 S         -3.7315865120       -0.7002002227        0.3451569387
 O         -3.4661390367       -0.4288197328        1.7352050263
 O         -2.9623550194       -1.7586099272       -0.2694569676
 C         -5.4764418869       -0.9871782994        0.1150863318
 C         -6.3713554353       -0.2597052202        0.8769702558
 C         -7.7293695341       -0.4570249315        0.6849663373
 C         -8.1678538892       -1.3729234521       -0.2599566533
 C         -7.2580557543       -2.0974374082       -1.0150342921
 C         -5.8981054867       -1.9037359691       -0.8291724476
 H         -5.1539202815       -2.4499134356       -1.3864564232
 H         -7.6017009957       -2.8115350332       -1.7459605510
 H         -9.2254133102       -1.5254236349       -0.4066925480
 H         -8.4398671401        0.1019326810        1.2722395741
 H         -5.9840186984        0.4330753178        1.6055446288
 H         -4.1618931919        0.7369217126       -1.3387950576
 H         -2.7998571028        1.9468568937       -2.7701792588
 H         -0.5432283608        2.8195934950       -3.2432764843
 H          1.2651773644        2.5532738783       -1.5871861919
 C          1.1301375248        1.3558187256        0.8538311698
 H          0.7759410905        0.6024361466        1.5768737887
 C          1.4171613692        2.6304363772        1.6363188869
 C          0.9538036274        3.9880894856        1.2109729083
 C          0.3064368863        3.3122436058        2.3797138315
 H          0.5017742817        3.6872133639        3.3729376308
 H         -0.6909435473        2.9202443378        2.2431828505
 H          1.6182225437        4.8190898474        1.3912504856
 H          0.3918069596        4.0721486957        0.2947054535
 H          2.3808470926        2.5882951961        2.1341001745
 O          1.5790958976       -1.4076824520        0.8043699580
