  62
        -98.94043987
 C          2.4431260380       -1.0871726475        0.0245590019
 C          2.4129871861        0.3022915546       -0.2440605668
 C          3.7013725375        0.9060940284       -0.6083914799
 C          4.8013742239        0.1362175590       -0.6969880741
 C          6.1806583789        0.6018645637       -1.0778390554
 C          6.9854009160        1.1880977913        0.0902840771
 C          6.5289927227        2.5674027599        0.5673090239
 H          6.4695903470        3.2445575059       -0.2852398868
 H          7.3051839618        2.9489676915        1.2335175921
 C          5.1909968159        2.5669069599        1.3199001224
 H          5.2805698669        3.1738530083        2.2237160859
 H          4.9524166583        1.5500918086        1.6404491528
 C          4.0126275014        3.1209084261        0.5185833387
 H          4.1787405996        4.1792757194        0.3053073151
 H          3.1111100211        3.0391487037        1.1316977680
 C          3.7503179244        2.3911250399       -0.8054402774
 H          4.5130547086        2.6546230032       -1.5379383522
 H          2.7748447781        2.7070686266       -1.1841403454
 H          8.0245306532        1.2664672693       -0.2372720894
 H          6.9518176786        0.4845838560        0.9252352599
 H          6.1106555815        1.3380254909       -1.8789632680
 H          6.7109522017       -0.2750228022       -1.4552282753
 O          4.7795940740       -1.2029537816       -0.4618774867
 C          3.6116629251       -1.8416312061       -0.0782063338
 O          3.7386979682       -3.0655411771        0.1288038943
 O          1.3682424758        1.0034197013       -0.1870290611
 C          1.1739940357       -1.8031069888        0.4492049172
 C          0.0917749366       -1.6021460933       -0.5834963801
 C          0.3845099199       -1.8609241195       -1.9203829243
 C         -0.5729738647       -1.6830444067       -2.8992127288
 C         -1.8414765073       -1.2413051620       -2.5661045120
 C         -2.1500766413       -0.9962577578       -1.2337093295
 C         -1.1880952816       -1.1878550064       -0.2507287206
 H         -1.4501579597       -0.9853778528        0.7732904463
 N         -3.4519870025       -0.5994527384       -0.8717889379
 S         -3.6839478742        0.5927436527        0.3016820282
 O         -3.0545889895        1.8311194366       -0.1014465240
 O         -3.3133699983        0.0700827897        1.5915943443
 C         -5.4587241798        0.7516477715        0.2127878416
 C         -6.0206026790        1.8382724533       -0.4295137057
 C         -7.4016813201        1.9320623101       -0.5054358962
 C         -8.1925572265        0.9413869536        0.0564086971
 C         -7.6138948312       -0.1438805066        0.6980944324
 C         -6.2342199073       -0.2424192405        0.7792058363
 H         -5.7405328117       -1.0613087625        1.2756964196
 H         -8.2322646343       -0.9109383992        1.1357335814
 H         -9.2667783801        1.0166416224       -0.0041665779
 H         -7.8542793678        2.7759736677       -1.0007500921
 H         -5.3658832340        2.5876050245       -0.8448899821
 H         -4.0145353789       -0.3786611493       -1.6837456007
 H         -2.5867218941       -1.0902003283       -3.3326529233
 H         -0.3286596396       -1.8805725602       -3.9323204652
 H          1.3804519420       -2.1944287126       -2.1806004477
 H          1.4234987772       -2.8742901009        0.4800156966
 C          0.7708740785       -1.3581845530        1.8396224763
 C          0.0180462147       -2.2875120887        2.7416828686
 C          1.4539549167       -1.9665653408        3.0259089770
 H          1.6862349702       -1.3325255136        3.8684754391
 H          2.1972307168       -2.7264639039        2.8315962550
 H         -0.7428655281       -1.8718398975        3.3852245557
 H         -0.2145928728       -3.2708105814        2.3616183725
 H          0.5342757274       -0.3002726846        1.8873718527
