  62
        -98.94319726
 C          2.3913015282        0.4209522064        0.1042516175
 C          3.4578552833        0.3969056958        1.0341938665
 C          4.4887776679       -0.6229964779        0.8025811856
 C          4.3547221941       -1.4687927971       -0.2356325272
 C          5.3565307920       -2.5183981391       -0.6190419506
 C          6.3772920923       -1.9701984895       -1.6262216078
 C          6.9940856621       -0.6329522243       -1.2158817574
 H          7.7190546482       -0.3595591274       -1.9856599574
 H          6.2167201614        0.1345874547       -1.2199121949
 C          7.6847817445       -0.6460979110        0.1549694691
 H          7.8919338490       -1.6736972182        0.4557867367
 H          8.6453560559       -0.1338944861        0.0681174311
 C          6.9033822961        0.0586555623        1.2653792710
 H          7.5684997981        0.1811320590        2.1243925842
 H          6.6132243146        1.0582139629        0.9317455783
 C          5.6462526546       -0.6677232458        1.7601784774
 H          5.3044605687       -0.1596771158        2.6668060489
 H          5.8946029880       -1.6992713315        2.0178949692
 H          7.1669953896       -2.7124892435       -1.7557887467
 H          5.8764257165       -1.8351577120       -2.5876415550
 H          4.8220275239       -3.3533262760       -1.0750541294
 H          5.8664611066       -2.8709065125        0.2753798228
 O          3.3024595334       -1.4315402488       -1.0923320018
 C          2.2993688190       -0.4835838731       -0.9534154618
 O          1.4043294269       -0.5518685448       -1.8165229018
 O          3.5408093636        1.1881561226        2.0122697663
 C          1.3000169281        1.4630810220        0.2689116683
 C         -0.0352692662        0.7896376114        0.4669461940
 C         -0.1649367064       -0.1487467528        1.4882153280
 C         -1.3681659075       -0.7876789288        1.7136258996
 C         -2.4722118136       -0.5063143317        0.9270003215
 C         -2.3584499351        0.4347078748       -0.0856022868
 C         -1.1468665992        1.0795913749       -0.3069933397
 H         -1.0769195974        1.8070645852       -1.1006837643
 N         -3.4719730235        0.7220448474       -0.8909999491
 S         -4.9491650914        1.0270668381       -0.1587286581
 O         -5.6812038341        1.8337305410       -1.1106947376
 O         -4.7790260950        1.5886596266        1.1611628057
 C         -5.7181095980       -0.5748935644       -0.0473574413
 C         -5.8629313774       -1.3104956139       -1.2072185063
 C         -6.4710858748       -2.5536700023       -1.1394996633
 C         -6.9243191436       -3.0364178669        0.0792640367
 C         -6.7746463054       -2.2842313729        1.2342086538
 C         -6.1663235727       -1.0400726299        1.1733052106
 H         -6.0248988441       -0.4223973073        2.0460125681
 H         -7.1283297972       -2.6610510643        2.1804715592
 H         -7.3972850147       -4.0045159937        0.1288802834
 H         -6.5890781876       -3.1416097289       -2.0355037729
 H         -5.5004417986       -0.8992557459       -2.1345601838
 H         -3.2857160745        1.3842799120       -1.6298005425
 H         -3.4130751234       -1.0045680647        1.0942187040
 H         -1.4494912413       -1.5145223189        2.5076679271
 H          0.6968516588       -0.3704191930        2.1031199024
 H          1.5477617637        1.9998449243        1.1968902908
 C          1.3322262780        2.4455911897       -0.8826052485
 C          0.8094388240        3.8385334223       -0.7005712789
 C          2.2840414750        3.6009555361       -0.8218697013
 H          2.7838457115        3.9061582372       -1.7290044145
 H          2.8931101386        3.6957823458        0.0651962809
 H          0.2980306413        4.3113831660       -1.5258125250
 H          0.4152210103        4.1016739941        0.2695351174
 H          1.1914464355        1.9658850987       -1.8450169380
