  62
        -98.94358974
 C         -2.0193994384       -1.3604137963       -0.1909723694
 C         -1.8995828959       -0.0251345046       -0.6460115052
 C         -3.1569395621        0.7308665084       -0.7410208718
 C         -4.3149563655        0.1322397553       -0.4079778125
 C         -5.6547059800        0.8082421243       -0.3924563373
 C         -5.9509148298        1.4177438553        0.9852822409
 C         -4.8091716579        2.2659060441        1.5463481152
 H         -5.1429664429        2.6648958770        2.5067815367
 H         -3.9506599337        1.6211195598        1.7486557403
 C         -4.3698287954        3.4225830838        0.6376733434
 H         -4.2487004541        4.3201392160        1.2479323434
 H         -5.1488593101        3.6329314003       -0.0961112359
 C         -3.0413356525        3.1921447546       -0.0850480286
 H         -2.7234574852        4.1428752336       -0.5213666628
 H         -2.2778968785        2.8925992198        0.6378207064
 C         -3.0710414361        2.1545617574       -1.2141310798
 H         -3.8867823404        2.3831744925       -1.9027553213
 H         -2.1273079559        2.2316072459       -1.7615201626
 H         -6.1498319902        0.6049094878        1.6878046024
 H         -6.8536071384        2.0263991668        0.9070141148
 H         -5.6750422603        1.5833330505       -1.1560216283
 H         -6.4193514103        0.0643254836       -0.6222951630
 O         -4.3905655795       -1.1578594039        0.0090957957
 C         -3.2481332995       -1.9322209465        0.1358553552
 O         -3.4537787000       -3.0930811994        0.5457988467
 H          1.9598153326       -2.0285035013       -0.2893403938
 C          1.5828450417       -1.5594505893        0.6064000506
 C          0.2216461072       -1.5664880771        0.8716830809
 C         -0.2261465255       -0.9615787348        2.0429365025
 C          0.6583981326       -0.3480286925        2.9092944693
 C          2.0153678678       -0.3360884517        2.6369403092
 C          2.4755233377       -0.9478618784        1.4794347815
 N          3.8600927003       -0.9515943281        1.2081353306
 S          4.6117142681        0.5134471034        0.9006356350
 O          6.0066030695        0.1976650903        0.6933211565
 O          4.3130565524        1.4271498705        1.9727093345
 C          3.8943278996        1.0846809043       -0.6294064583
 C          2.5785815680        1.5029461176       -0.6316541584
 C          1.9953639539        1.8722598412       -1.8330913416
 C          2.7371985941        1.8260380005       -3.0033600861
 C          4.0608410076        1.4118667865       -2.9835982591
 C          4.6449456247        1.0277210256       -1.7876039924
 H          5.6666720391        0.6890780050       -1.7257843762
 H          4.6344815675        1.3795033863       -3.8960913932
 H          2.2778834742        2.1123926901       -3.9366432171
 H          0.9568445373        2.1601618111       -1.8419386487
 H          2.0188264948        1.5279277233        0.2891520062
 H          4.1241830397       -1.6112589203        0.4892046284
 H          2.7174969626        0.1517875883        3.2927422648
 H          0.2899050042        0.1226703309        3.8086343006
 H         -1.2853203652       -0.9724125325        2.2634521551
 C         -0.7775938431       -2.2209550972       -0.0517011713
 H         -1.1082767601       -3.1600508125        0.4163952549
 C         -0.2132790429       -2.5322369994       -1.4235576651
 C          0.4922241180       -3.8292947585       -1.6805103236
 C         -0.8736317173       -3.5930178935       -2.2498827177
 H         -0.9711253644       -3.4339511195       -3.3132203757
 H         -1.7113267117       -4.1133819939       -1.8082451669
 H          0.5828701243       -4.5231882589       -0.8582228757
 H          1.3325165045       -3.8352855395       -2.3588341018
 H          0.1391667761       -1.6447998838       -1.9372389198
 O         -0.8044146369        0.5091338582       -0.9538793466
