  62
        -98.93495652
 C         -1.7683302498       -0.1923132028        0.7830710647
 C         -2.5628530854       -0.8366777620       -0.2017734377
 C         -4.0229804587       -0.7288188261       -0.0343013512
 C         -4.5308167113       -0.0320028710        0.9955860816
 C         -5.9913191031        0.2089890477        1.2403266972
 C         -6.4618254098        1.5037943780        0.5628398585
 C         -6.0406819079        1.6245130889       -0.9018977784
 H         -4.9528791317        1.7114997254       -0.9537455531
 H         -6.4552084226        2.5605303815       -1.2826767668
 C         -6.4997003331        0.4619215298       -1.7931513737
 H         -6.9002186271        0.8711355454       -2.7231018253
 H         -7.3087780971       -0.0822271003       -1.3044489715
 C         -5.3903652378       -0.5182038131       -2.1788312869
 H         -4.5398592236        0.0339550772       -2.5862889752
 H         -5.7705671198       -1.1658309829       -2.9733397729
 C         -4.8816774927       -1.4263314536       -1.0523602086
 H         -4.2487419517       -2.1941646279       -1.5063924740
 H         -5.7264916635       -1.9198244710       -0.5678434898
 H         -6.0437544247        2.3522329957        1.1097590798
 H         -7.5497087647        1.5557277262        0.6362926092
 H         -6.5625207301       -0.6379584093        0.8648762165
 H         -6.1500984114        0.2941994980        2.3167335168
 O         -3.7469293229        0.5837084443        1.9156933856
 C         -2.3692674986        0.5161789096        1.8347159893
 O         -1.7882546609        1.1280833442        2.7557668489
 H          2.1408991811        0.9487739217        1.0454591282
 C          1.7385553653        1.0567275565        0.0493611375
 C          0.4762550646        0.5539793828       -0.2487606129
 C         -0.0256234301        0.7493816681       -1.5281606037
 C          0.7156631303        1.4325840051       -2.4774295745
 C          1.9762510424        1.9155191096       -2.1814490044
 C          2.4921521625        1.7225143415       -0.9048155696
 N          3.7697477451        2.1919025907       -0.5674452988
 S          4.7324070921        1.2965333416        0.4598178380
 O          4.3382486717        1.5094122606        1.8300988886
 O          6.0837533366        1.6930901720        0.1266920949
 C          4.4716855072       -0.4121078278        0.0116128190
 C          4.2030388866       -1.3357099492        1.0007143499
 C          4.0207948418       -2.6640174391        0.6495179783
 C          4.1034609915       -3.0427608385       -0.6810213877
 C          4.3748437909       -2.1034594012       -1.6639102801
 C          4.5654501223       -0.7761208555       -1.3171799647
 H          4.7878148127       -0.0286487602       -2.0608667124
 H          4.4372484588       -2.4017634158       -2.6978896710
 H          3.9566192666       -4.0762409960       -0.9534074941
 H          3.8101921337       -3.3952452415        1.4139108618
 H          4.1396247380       -0.9972859851        2.0231124871
 H          4.2944282761        2.5964444050       -1.3286108022
 H          2.5537634610        2.4435908278       -2.9246803437
 H          0.3059011749        1.5808417796       -3.4650525767
 H         -0.9916733892        0.3530072346       -1.7902563310
 C         -0.2497426424       -0.1926732523        0.8491436628
 H         -0.0395847350        0.3622607709        1.7776116452
 C          0.4337077203       -1.5494578902        1.0332686210
 C         -0.3027860691       -2.7909124489        1.4301105631
 C          0.3140976638       -2.6865303487        0.0678025873
 H          1.2017295932       -3.2642677029       -0.1429881093
 H         -0.3514123565       -2.5597116169       -0.7699726892
 H         -1.3798268094       -2.7335750997        1.4988200595
 H          0.1467325858       -3.4427956456        2.1646238360
 H          1.4158752550       -1.4222245826        1.4797554093
 O         -2.1166293957       -1.4705224260       -1.1922975162
