  62
        -98.94641825
 C         -1.1074128172       -1.8149545277       -0.0435943870
 C         -1.1975693013       -0.6689943806       -0.8744097770
 C         -2.4911039084        0.0349577177       -0.8574861389
 C         -3.4950372436       -0.4368275061       -0.0977190332
 C         -4.8639933210        0.1713291988        0.0027035482
 C         -4.9595546230        1.1720411895        1.1610620271
 C         -3.8360448416        2.2082784181        1.1756579425
 H         -4.0362121564        2.8963266400        2.0003019625
 H         -2.8866771255        1.7148119864        1.3992731321
 C         -3.6883902268        3.0029309990       -0.1288910924
 H         -4.6022198032        2.9260304445       -0.7200227411
 H         -3.5488059875        4.0570522052        0.1204780683
 C         -2.4867652556        2.5858364030       -0.9792388233
 H         -1.6035287386        2.5380739426       -0.3364089099
 H         -2.3147717928        3.3650408732       -1.7280612193
 C         -2.6243115665        1.2529116528       -1.7277547092
 H         -3.5705990358        1.2353960583       -2.2737924436
 H         -1.8072101431        1.1894590441       -2.4526687250
 H         -5.9234601367        1.6808892790        1.0977563150
 H         -4.9281289010        0.6189707450        2.1026327853
 H         -5.1039241385        0.6648404930       -0.9372690310
 H         -5.5810166693       -0.6341894099        0.1725289581
 O         -3.3699394641       -1.5338869053        0.6926062860
 C         -2.1782040270       -2.2362157239        0.7466695209
 O         -2.2004837783       -3.2190291036        1.5177380697
 H          0.5138247186       -0.0625137140        0.8131864355
 C          1.3068119145       -0.7176645575        1.1335788786
 C          1.2638354135       -2.0687203610        0.8342040834
 C          2.3021385630       -2.8814603600        1.2831337590
 C          3.3486329308       -2.3515476142        2.0133752177
 C          3.3935492561       -0.9981018062        2.2998143801
 C          2.3642118411       -0.1780910642        1.8543043596
 N          2.3737259118        1.1969340733        2.1223459845
 S          1.6692589915        2.2839012734        1.0714658958
 O          2.2749080802        3.5523252590        1.4289368131
 O          0.2332608330        2.2366416255        1.1919460309
 C          2.1893247195        1.8494233790       -0.5798763326
 C          1.3766495341        2.2169355378       -1.6314537082
 C          1.7834237404        1.9405566692       -2.9262251340
 C          2.9915057588        1.3007530625       -3.1477571640
 C          3.8023224386        0.9454710430       -2.0815299097
 C          3.4041572717        1.2267062586       -0.7847536256
 H          4.0244599816        0.9557817034        0.0538099825
 H          4.7425909607        0.4465857142       -2.2541595457
 H          3.3016683798        1.0760796712       -4.1563220921
 H          1.1496978215        2.2162206831       -3.7538432410
 H          0.4368741851        2.6999700486       -1.4213165819
 H          3.2178351308        1.5588099747        2.5402192926
 H          4.2104045276       -0.5798762586        2.8678620790
 H          4.1416388841       -2.9955368131        2.3610428792
 H          2.2787827075       -3.9370906824        1.0627540617
 C          0.1398324197       -2.6741146414        0.0243037248
 H         -0.1678262673       -3.6013939762        0.5291573080
 C          0.6491945912       -3.0298142535       -1.3638375984
 C          1.2041007047       -4.3920311553       -1.6450330286
 C         -0.1304059275       -3.9976703348       -2.2008962849
 H         -0.2219980826       -3.8066122627       -3.2592616433
 H         -1.0155939049       -4.4330449881       -1.7589172401
 H          2.0388515579       -4.4761374280       -2.3236195077
 H          1.2126336442       -5.1134349059       -0.8420498740
 H          1.0948993981       -2.1846078651       -1.8735595594
 O         -0.2636489947       -0.2517813530       -1.6068422913
