  62
        -98.94565522
 C         -1.1223036580       -1.4617558214        0.7407020593
 C         -2.0004249374       -1.4233181526       -0.3687405912
 C         -2.9874905487       -0.3341713037       -0.3645373919
 C         -2.9819054904        0.5592381664        0.6414581880
 C         -3.9014464719        1.7413840152        0.7388258073
 C         -3.2944539430        2.9850776259        0.0751215476
 C         -2.7325075119        2.7340725165       -1.3235861021
 H         -2.3551780228        3.6878954669       -1.6973731419
 H         -1.8779173711        2.0572452375       -1.2490959015
 C         -3.7483741406        2.1649005351       -2.3236879426
 H         -4.7624414810        2.3382052939       -1.9612518432
 H         -3.6467111807        2.7000467552       -3.2701536626
 C         -3.5703698386        0.6776619453       -2.6328302324
 H         -2.5306173982        0.4797674066       -2.9060352717
 H         -4.1885176478        0.4339422445       -3.5011622427
 C         -3.9630051881       -0.2865369350       -1.5066908125
 H         -4.9661249486       -0.0459780562       -1.1485306631
 H         -3.9805898066       -1.2965306451       -1.9266243224
 H         -4.0630561439        3.7584815450        0.0269144170
 H         -2.4806088238        3.3461873170        0.7051010580
 H         -4.8507312313        1.4914729741        0.2684400668
 H         -4.0760262628        1.9532887651        1.7949686072
 O         -2.1040105009        0.5049643275        1.6763260785
 C         -1.1556650898       -0.5018777413        1.7522030992
 O         -0.4121672704       -0.4353867903        2.7518073196
 H          1.2724415809       -0.3129252085        0.2706677806
 C          1.5022525722       -1.0790417783       -0.4565106292
 C          0.9107186237       -2.3306820090       -0.3318788394
 C          1.2155169854       -3.3070983387       -1.2698451291
 C          2.0813239357       -3.0249402878       -2.3129028287
 C          2.6737423643       -1.7811292371       -2.4282651384
 C          2.3840410825       -0.7997411873       -1.4863420687
 N          2.9582481610        0.4790643433       -1.5640636885
 S          3.5152487293        1.2012725042       -0.1574769582
 O          4.5150589484        2.1451125753       -0.6131614577
 O          3.9654161599        0.2142404948        0.7958442422
 C          2.1362699978        2.1209495825        0.4892418209
 C          1.5409671171        3.0676942217       -0.3214856396
 C          0.5208379559        3.8463067406        0.1992154998
 C          0.1177884853        3.6681391102        1.5146963495
 C          0.7158387360        2.7051840510        2.3112368700
 C          1.7383034973        1.9247812722        1.7960341807
 H          2.2214106878        1.1614456728        2.3855629110
 H          0.3887755356        2.5458511907        3.3260729998
 H         -0.6634684957        4.2875276793        1.9277441390
 H          0.0453721454        4.5919016799       -0.4177709706
 H          1.8899669376        3.1837925021       -1.3341320294
 H          3.6099654713        0.6043759641       -2.3254080381
 H          3.3533488145       -1.5663901763       -3.2391320280
 H          2.3032070171       -3.7884294476       -3.0431905584
 H          0.7684833666       -4.2842774993       -1.1924196393
 C         -0.0457763168       -2.5307006201        0.8192897700
 H          0.5079516925       -2.3395179393        1.7503669203
 C         -0.6520316151       -3.9153535608        0.8870669598
 C          0.1255913859       -5.0417461898        1.4966183404
 C         -1.0532486052       -4.4662678912        2.2209755396
 H         -1.9569937546       -5.0533488422        2.2859098391
 H         -0.8703769365       -3.8494887509        3.0891139297
 H          0.0306968273       -6.0275638500        1.0670877304
 H          1.1117668054       -4.8194751986        1.8761753809
 H         -1.2953011943       -4.1336105517        0.0430512695
 O         -1.9708213058       -2.2553544326       -1.3126421711
