  62
        -98.94496528
 C          1.8921647448        0.7278685718       -0.1513753626
 C          2.4571346077        0.0812717402        0.9732288329
 C          3.5298441000       -0.8814516051        0.6909463389
 C          3.8755035036       -1.1235568503       -0.5869711262
 C          4.9822606440       -2.0421539944       -1.0153558814
 C          6.3112902449       -1.2856842720       -1.1499175083
 C          6.6520023313       -0.4150847260        0.0596032994
 H          7.6236636464        0.0443133687       -0.1340890672
 H          5.9224444623        0.3946489353        0.1324560373
 C          6.7016467472       -1.1731410973        1.3935673005
 H          6.7984601609       -2.2435548668        1.2082451798
 H          7.5913714688       -0.8578249774        1.9426457115
 C          5.5020603081       -0.9240909757        2.3096180805
 H          5.3450203128        0.1515509380        2.4225286364
 H          5.7399970133       -1.3256862547        3.2982461546
 C          4.1792029103       -1.5601929375        1.8642955096
 H          4.3317889888       -2.6221570242        1.6602990066
 H          3.4710719491       -1.4683660722        2.6932761960
 H          7.1076289365       -2.0142976910       -1.3123647946
 H          6.2550095066       -0.6417623756       -2.0306055951
 H          5.0822132487       -2.8467628882       -0.2892652150
 H          4.7178837129       -2.4701521901       -1.9839033382
 O          3.2768498118       -0.5188634683       -1.6442766184
 C          2.2769890240        0.4257008212       -1.4580037608
 O          1.8221711412        0.9062938089       -2.5121910152
 O          2.0761719786        0.2938926181        2.1567816285
 C          0.7955148221        1.7548801830        0.0670120083
 C         -0.4856807211        1.2863748481       -0.5781238553
 C         -1.2601108177        2.0782242357       -1.4148048506
 C         -2.4186564737        1.5745592086       -1.9823015967
 C         -2.8355449646        0.2832011797       -1.7203999857
 C         -2.0803744603       -0.5098166155       -0.8644381441
 C         -0.9218991731       -0.0033258278       -0.2969147798
 H         -0.3328060729       -0.6244234686        0.3666392968
 N         -2.5050908226       -1.8165334300       -0.5732377766
 S         -4.1288583212       -2.0670505860       -0.2583505176
 O         -4.1717535189       -3.2267078999        0.6048386316
 O         -4.8527076973       -2.1824232588       -1.4999791567
 C         -4.6698255644       -0.6109894065        0.6201943049
 C         -4.0348263771       -0.2901615662        1.8037388192
 C         -4.4216437733        0.8534935334        2.4829514805
 C         -5.4321984938        1.6526721778        1.9701657274
 C         -6.0641137367        1.3136507779        0.7840970881
 C         -5.6796236537        0.1719782813        0.0992048583
 H         -6.1408646215       -0.1268646329       -0.8279658728
 H         -6.8508774767        1.9355832953        0.3887129995
 H         -5.7279246615        2.5442557960        2.5001333221
 H         -3.9303782311        1.1180888585        3.4056293932
 H         -3.2547010802       -0.9331942522        2.1793353118
 H         -1.9188446949       -2.3043670595        0.0873004162
 H         -3.7231634647       -0.1289189409       -2.1721615702
 H         -3.0031896541        2.1964010128       -2.6427485038
 H         -0.9513635687        3.0865746332       -1.6345375737
 H          0.6368270274        1.7822861684        1.1554294318
 C          1.2478459322        3.1241459854       -0.3933053218
 C          0.6848242556        4.3580141377        0.2443126326
 C          2.0992631889        3.9495876347        0.5228033637
 H          2.9012907905        4.5327216199        0.0956014012
 H          2.3319816547        3.5341610867        1.4926349994
 H          0.5165954011        5.2268917071       -0.3737134196
 H         -0.0435424747        4.2264354650        1.0298417118
 H          1.4809262127        3.1519295617       -1.4516939271
