  62
        -98.94413028
 C         -2.4871423132       -1.1705796767       -0.0566240260
 C         -3.2077184142       -0.4205363244        0.9025968764
 C         -4.0552008817        0.6524992309        0.3710904228
 C         -4.1114634465        0.8622549473       -0.9571420488
 C         -4.9517318115        1.8978819152       -1.6542436035
 C         -4.3062045627        3.2889549358       -1.7167366178
 C         -4.2669519817        4.0478015339       -0.3897008174
 H         -3.9893989607        5.0788429987       -0.6173393382
 H         -5.2661961987        4.0683370069        0.0461663355
 C         -3.2700017575        3.4834317999        0.6322715705
 H         -2.5590189228        2.8279958776        0.1229514594
 H         -2.6926690910        4.3012385365        1.0700074811
 C         -3.9132240156        2.7143839820        1.7866263267
 H         -3.1165579311        2.3313858016        2.4303793619
 H         -4.5270893000        3.3937499119        2.3820525881
 C         -4.7811903383        1.5271719045        1.3484101946
 H         -5.7169681017        1.8841029503        0.9190943141
 H         -5.0073650850        0.9239769816        2.2311502797
 H         -3.2913448366        3.1858184956       -2.1078246713
 H         -4.8795847400        3.8822837361       -2.4325081865
 H         -5.9246005294        1.9683628152       -1.1671096271
 H         -5.0985638394        1.5410263514       -2.6758022423
 O         -3.4010886122        0.1197290587       -1.8468879616
 C         -2.5562674296       -0.8969160737       -1.4229181958
 O         -1.9410892828       -1.4686386596       -2.3415135450
 O         -3.1437621901       -0.6360764617        2.1439381480
 C         -1.5837076273       -2.2939887608        0.4160637589
 C         -0.1483010977       -2.0146956707        0.0418063797
 C          0.6985638196       -2.9716084657       -0.5012975978
 C          2.0122670034       -2.6556367027       -0.8031641040
 C          2.5106941182       -1.3880540909       -0.5680813067
 C          1.6768739430       -0.4259482972       -0.0126314706
 C          0.3632372434       -0.7463912724        0.2907146733
 H         -0.2839649419        0.0048985298        0.7284680574
 N          2.1784337911        0.8679650207        0.2287601829
 S          3.5371711483        0.9878166699        1.2135369972
 O          3.5875996468       -0.0913488767        2.1731281983
 O          3.4948188549        2.3283265036        1.7560452584
 C          4.9050564743        0.8616033051        0.0815424503
 C          4.9789851765        1.7700991473       -0.9561609942
 C          6.0425512738        1.6892979694       -1.8407686039
 C          7.0100269376        0.7098030417       -1.6715202453
 C          6.9233510568       -0.1921627669       -0.6220722578
 C          5.8611068192       -0.1180592664        0.2655670202
 H          5.7477753348       -0.8011589012        1.0920946145
 H          7.6765296081       -0.9525688350       -0.4921466404
 H          7.8363787849        0.6493235533       -2.3620003854
 H          6.1131747224        2.3885997826       -2.6583009175
 H          4.2086278555        2.5173206984       -1.0498635109
 H          1.4718427428        1.5187347853        0.5411448835
 H          3.5304767312       -1.1366482771       -0.8093951896
 H          2.6562807989       -3.4081833988       -1.2317172976
 H          0.3293052211       -3.9656604630       -0.6919819468
 H         -1.6525203933       -2.2796280486        1.5148892712
 C         -2.0941634010       -3.6291281963       -0.0838240804
 C         -1.8565075474       -4.8760868095        0.7128789067
 C         -3.2306827732       -4.2833725015        0.6410543562
 H         -3.9858831655       -4.7939682772        0.0627092814
 H         -3.6178696388       -3.7778612418        1.5139150371
 H         -1.6702470024       -5.7986083937        0.1840475646
 H         -1.3120704481       -4.7806727217        1.6402826930
 H         -2.0840553906       -3.6992178317       -1.1656202674
