  62
        -98.94339254
 C         -1.1134547500       -1.3010230774       -0.1330217790
 C         -1.9081237581       -0.8643273101        0.9594132992
 C         -2.8023681006        0.2715498691        0.7062408459
 C         -2.7920392076        0.8543712412       -0.5059531387
 C         -3.6967159424        1.9749936056       -0.9280117057
 C         -4.9861879275        1.4351871757       -1.5627939919
 C         -5.6761864339        0.3520270201       -0.7333335341
 H         -5.0392202652       -0.5350122467       -0.7035668280
 H         -6.5908176756        0.0720388801       -1.2605607446
 C         -6.0223147409        0.7741130192        0.7015898547
 H         -7.0405389512        0.4491494848        0.9257228111
 H         -6.0056184384        1.8615298744        0.7827347444
 C         -5.1160982008        0.1707334578        1.7765913721
 H         -5.0597253640       -0.9123839204        1.6417544934
 H         -5.5763958771        0.3546440590        2.7510227691
 C         -3.6866988726        0.7246924927        1.8334707499
 H         -3.2223569832        0.3479407461        2.7493390350
 H         -3.7194225006        1.8147287579        1.8873308529
 H         -4.7420072711        1.0137018108       -2.5406372302
 H         -5.6720719705        2.2704763058       -1.7152913822
 H         -3.9410496052        2.5882944075       -0.0628245581
 H         -3.1702561962        2.5858375095       -1.6627838244
 O         -1.9779918186        0.4483474487       -1.5098107166
 C         -1.1284936532       -0.6393827605       -1.3614070178
 O         -0.4613955628       -0.8888906891       -2.3837986780
 H          1.4419698681       -0.9288943107       -1.2673967623
 C          1.8818942228       -1.2633734778       -0.3393408298
 C          1.1565523436       -2.1096518310        0.4892954497
 C          1.7354052812       -2.5254553442        1.6819278493
 C          3.0079176253       -2.1061658491        2.0338650421
 C          3.7268793625       -1.2620836849        1.2059699303
 C          3.1530516582       -0.8394185067        0.0141503644
 N          3.8606713646        0.0613934998       -0.8191544948
 S          3.9323146280        1.6236727241       -0.2179789675
 O          4.4749938077        2.4367497661       -1.2814868855
 O          4.6761292559        1.6026677545        1.0153466397
 C          2.2386529537        2.0866639166        0.1027683597
 C          1.6272111476        1.6383364187        1.2571429511
 C          0.3004413366        1.9670592497        1.4821362786
 C         -0.3845392057        2.7427415042        0.5600307598
 C          0.2403623062        3.1775916783       -0.5979808399
 C          1.5625412778        2.8394878708       -0.8357298005
 H          2.0866641925        3.1580333605       -1.7227303595
 H         -0.2988783290        3.7747804502       -1.3157069190
 H         -1.4126962441        3.0074108104        0.7471256884
 H         -0.1969245637        1.6112892966        2.3706445303
 H          2.1930802811        1.0518560337        1.9626086802
 H          3.4788630945        0.0976747499       -1.7552978763
 H          4.7075392590       -0.9043425675        1.4738803220
 H          3.4431092179       -2.4366648289        2.9646395690
 H          1.1748256575       -3.1683976974        2.3445540172
 C         -0.2412344969       -2.5221393680        0.1098451397
 H         -0.6902334278       -3.0109618107        0.9885199368
 C         -0.2854743976       -3.5224612537       -1.0383304832
 C          0.8969094629       -3.8759565720       -1.8856257194
 C          0.3750822310       -4.8609743588       -0.8859265299
 H         -0.1420731861       -5.7397141377       -1.2401251298
 H          0.9633145230       -5.0226583401        0.0049671582
 H          1.8410153716       -3.3961416887       -1.6812322341
 H          0.7216072691       -4.0555454682       -2.9355513656
 H         -1.2451534237       -3.5122958400       -1.5454390564
 O         -1.8778441434       -1.4127672321        2.0928045213
