  62
        -98.93883653
 C         -2.7919427115       -0.1407611047       -0.3351062682
 C         -2.8625264756        0.7816194250        0.7412301930
 C         -2.4867874149        2.1656693783        0.4428115204
 C         -2.1085834196        2.4955242180       -0.8049713557
 C         -1.6643894891        3.8558661794       -1.2676286786
 C         -0.1829248796        4.1386945148       -0.9806206564
 C          0.1475111850        4.4383008840        0.4823453256
 H         -0.5363563431        5.1976364169        0.8641089386
 H          1.1534923931        4.8619642270        0.5029595532
 C          0.1186196664        3.2070422723        1.3988312958
 H          0.9992588769        3.2113085849        2.0464228260
 H          0.1902588245        2.2979217824        0.7954760774
 C         -1.1065285597        3.1147594439        2.3091316390
 H         -1.0866572022        3.9344587348        3.0316056620
 H         -1.0428905399        2.1739914824        2.8626204803
 C         -2.4533818921        3.1463344717        1.5755385517
 H         -2.6602224999        4.1528470594        1.2122640402
 H         -3.2342532293        2.8600942083        2.2847431998
 H          0.1090304327        5.0016354176       -1.5839413624
 H          0.4071886625        3.2796456124       -1.3106813607
 H         -2.2826901123        4.6256587576       -0.8049061594
 H         -1.8196754773        3.8843997924       -2.3482509906
 O         -2.0971827196        1.5967034492       -1.8214266517
 C         -2.3825871619        0.2526808022       -1.6094470968
 O         -2.2459969155       -0.4486097292       -2.6307027093
 O         -3.2255337219        0.4535549336        1.9031324622
 C         -3.0389126734       -1.5981574358        0.0203268941
 C         -1.7463126699       -2.1576237898        0.5615673948
 C         -1.6805061538       -2.8276446228        1.7764730090
 C         -0.4606080156       -3.2224140550        2.3006366981
 C          0.7184757066       -2.9401612453        1.6332827721
 C          0.6580586389       -2.2895081003        0.4105057471
 C         -0.5630666070       -1.9196932332       -0.1245173315
 H         -0.5896867504       -1.3964469880       -1.0707202999
 N          1.8699866805       -1.9082330381       -0.2420143114
 S          2.2261111945       -0.2937112489        0.1503538904
 O          2.0107326188       -0.1240625072        1.5645477475
 O          1.5105663004        0.6045566058       -0.7322217292
 C          3.9717629978       -0.2347948576       -0.2054924773
 C          4.4227453463        0.3756474173       -1.3588981697
 C          5.7819304190        0.3699834061       -1.6326577527
 C          6.6599962569       -0.2473797031       -0.7552452434
 C          6.1911934084       -0.8572861522        0.3991743157
 C          4.8343979854       -0.8534851319        0.6787273494
 H          4.4229050996       -1.3069066871        1.5650694997
 H          6.8773569665       -1.3354100745        1.0794433589
 H          7.7165373928       -0.2518755739       -0.9719228742
 H          6.1484058256        0.8451910127       -2.5284019536
 H          3.7037627865        0.8468968087       -2.0100454518
 H          1.7626674856       -1.9406817078       -1.2489119390
 H          1.6775058392       -3.1989767147        2.0504911759
 H         -0.4274001350       -3.7315106426        3.2517413959
 H         -2.5912010777       -3.0073228848        2.3290421027
 H         -3.7624800008       -1.5755249508        0.8507310286
 C         -3.6442145772       -2.4308474053       -1.0972194860
 C         -2.8840932700       -3.4905134653       -1.8316763746
 C         -3.9539492732       -3.8794245403       -0.8588241318
 H         -4.8812871164       -4.2790179871       -1.2395297333
 H         -3.6394851172       -4.3048795193        0.0822112316
 H         -3.0723222118       -3.5971708905       -2.8888766471
 H         -1.8556951862       -3.6642559205       -1.5551623365
 H         -4.3631271302       -1.8657528600       -1.6804627206
