  62
        -98.94291399
 C          2.6391866735        1.1924692979        0.2456296318
 C          2.7710439045        0.3275457252       -0.8676447197
 C          3.8026306610       -0.7154472844       -0.7544744302
 C          4.5583754816       -0.7885300701        0.3553950759
 C          5.6002949072       -1.8350267049        0.6213617650
 C          5.0007419928       -3.0415200798        1.3573510088
 C          3.7173627466       -3.5774307819        0.7227316418
 H          2.9307513081       -2.8252069968        0.8184327632
 H          3.4039498656       -4.4453217210        1.3068733455
 C          3.8579080715       -3.9783061645       -0.7524468728
 H          3.3653664035       -4.9413934050       -0.9021981012
 H          4.9112176245       -4.1112972567       -1.0018413634
 C          3.2244853878       -2.9963642457       -1.7399372784
 H          2.1946425377       -2.7872363574       -1.4387231181
 H          3.1868140970       -3.4775437186       -2.7210444676
 C          3.9569876528       -1.6597851244       -1.9138236815
 H          3.5189638797       -1.1505075829       -2.7772864879
 H          5.0125679686       -1.8430001864       -2.1238591645
 H          4.7759727678       -2.7437876066        2.3840721093
 H          5.7511603027       -3.8334685017        1.3895670610
 H          6.0386244810       -2.1527049714       -0.3226818283
 H          6.3803844398       -1.3924405027        1.2429925090
 O          4.4203216180        0.0709778832        1.3957029848
 C          3.4622580657        1.0674215259        1.3711491333
 O          3.4432762896        1.7790901824        2.3949673958
 H          0.0558500085        0.6678964126       -1.1500430256
 C         -0.4313640698        0.9767050217       -0.2369018392
 C          0.2406400521        1.8169217738        0.6393262910
 C         -0.3968709041        2.1974727826        1.8144820469
 C         -1.6729421611        1.7455344698        2.1017126028
 C         -2.3367129358        0.9029570844        1.2280073896
 C         -1.7078635944        0.5150849167        0.0521336201
 N         -2.3592037293       -0.3622750515       -0.8318122257
 S         -3.9345663528       -0.0130147921       -1.2903085214
 O         -4.1189969035       -0.6814970954       -2.5598217728
 O         -4.1913566834        1.4085953495       -1.2698072427
 C         -4.9286540528       -0.8296093030       -0.0589432120
 C         -4.7155940144       -2.1762993863        0.1615689202
 C         -5.4901084949       -2.8301089540        1.1064093780
 C         -6.4612287267       -2.1313107491        1.8082484090
 C         -6.6649267537       -0.7802675979        1.5731261973
 C         -5.8926632690       -0.1200180434        0.6299397482
 H         -6.0113601386        0.9305499801        0.4175214056
 H         -7.4203472002       -0.2389466378        2.1197227784
 H         -7.0625348604       -2.6431501170        2.5429376868
 H         -5.3342619368       -3.8805779312        1.2925487052
 H         -3.9529408059       -2.6828584521       -0.4063349169
 H         -1.7976151534       -0.6106491575       -1.6338524945
 H         -3.3301001593        0.5468472689        1.4473698260
 H         -2.1556876337        2.0503476988        3.0176968292
 H          0.1199906803        2.8446507122        2.5082797905
 C          1.6254193556        2.3251985289        0.3130569398
 H          1.9516396761        2.9597044141        1.1478167827
 C          1.6021263597        3.1721064550       -0.9456721338
 C          1.0650194826        4.5682157125       -0.8705110623
 C          2.5337628898        4.3387852329       -1.0621643004
 H          2.9707797402        4.5547583321       -2.0255516808
 H          3.1935792833        4.5360468697       -0.2295736884
 H          0.7291462582        4.9237428365        0.0918999471
 H          0.4882681567        4.9432644120       -1.7021814830
 H          1.4037456860        2.6044474815       -1.8451880131
 O          2.0754382066        0.3973359107       -1.9177262337
