  62
        -98.93880368
 C          2.0669611704        0.9094292705        0.3653556521
 C          2.6399357624       -0.0251819356        1.2641174331
 C          2.9810094032       -1.3405648629        0.7078949663
 C          2.6775547477       -1.6073106387       -0.5753087518
 C          2.9928926252       -2.8933970472       -1.2815055389
 C          4.3635279120       -2.8317492981       -1.9698973434
 C          5.4858946832       -2.3228841026       -1.0652232857
 H          6.4098682303       -2.3516665792       -1.6465527863
 H          5.2949987262       -1.2763688963       -0.8167612612
 C          5.6706206314       -3.1255763979        0.2301735987
 H          5.1868451530       -4.0982357602        0.1348431565
 H          6.7368683523       -3.3064305164        0.3806535511
 C          5.1558591081       -2.4253584816        1.4891421860
 H          5.5649647702       -1.4131123667        1.5385127858
 H          5.5293993572       -2.9719140611        2.3589819405
 C          3.6307692700       -2.3363430563        1.6274588598
 H          3.1901457262       -3.3266468586        1.4940648669
 H          3.4076264205       -1.9947252452        2.6425843299
 H          4.6109352794       -3.8304144752       -2.3342271090
 H          4.2875755730       -2.1645540562       -2.8316458741
 H          2.9718724540       -3.7096478885       -0.5617119186
 H          2.2213605449       -3.0662730162       -2.0340892991
 O          2.0767186626       -0.7078539579       -1.3939389546
 C          1.7470978068        0.5661010512       -0.9504117174
 O          1.1891335741        1.2694918019       -1.8130498165
 H         -0.3924665014        0.6968763469        1.4293788262
 C         -0.7123086046        1.5833258770        0.8925190419
 C          0.2322941370        2.5432719748        0.5485571107
 C         -0.1935944933        3.6649847776       -0.1487693462
 C         -1.5229761813        3.8032967134       -0.5116383503
 C         -2.4523764522        2.8307105360       -0.1922847144
 C         -2.0372519087        1.7128432814        0.5168382193
 N         -2.9803006363        0.6907990307        0.8147832265
 S         -3.2185999736       -0.3647258665       -0.4904956565
 O         -2.1778229115       -1.3740104671       -0.4994498850
 O         -3.3835396883        0.4142619582       -1.6895124444
 C         -4.7736949342       -1.1103771543       -0.0369861406
 C         -5.9325528771       -0.3905450653       -0.2545112968
 C         -7.1452749728       -0.9415012721        0.1265692570
 C         -7.1786785099       -2.1957474650        0.7180121196
 C         -6.0071845521       -2.9062490110        0.9298927515
 C         -4.7906986453       -2.3595936066        0.5515720512
 H         -3.8558318325       -2.8790453854        0.6891963770
 H         -6.0354266094       -3.8820924395        1.3875167632
 H         -8.1236617125       -2.6233077696        1.0137354804
 H         -8.0584034395       -0.3927116887       -0.0382062448
 H         -5.8569712415        0.5758437256       -0.7244296591
 H         -2.6587641217        0.1202213419        1.5878359456
 H         -3.4814535646        2.9109607858       -0.5008022266
 H         -1.8348319756        4.6752917057       -1.0662782243
 H          0.5213623232        4.4171170839       -0.4397444450
 C          1.6668526478        2.2659262625        0.9220960255
 H          1.7127268354        2.1312160924        2.0164236696
 C          2.6204360726        3.4021590532        0.5889818781
 C          4.0623789909        3.1319188667        0.2820485780
 C          3.1484651012        3.6315208506       -0.7942944331
 H          3.2680385213        4.6504129075       -1.1328845330
 H          2.8356494898        2.9480018829       -1.5676291852
 H          4.3790256507        2.0995292012        0.2432299667
 H          4.8077156375        3.8033866752        0.6810037785
 H          2.4159132299        4.2875273964        1.1831478167
 O          2.8428199412        0.2266013419        2.4829524492
