  62
        -98.93939273
 C         -1.8181145063       -1.2890927226        0.3775557508
 C         -1.6410007061       -0.1089291105       -0.3816172446
 C         -2.6117739785        0.9726816159       -0.1313799791
 C         -3.5697895511        0.7965794645        0.7946419220
 C         -4.6839568430        1.7454140360        1.1371068547
 C         -5.9555089294        1.3830269633        0.3514765488
 C         -6.0494662936        2.0044555785       -1.0417433657
 H         -6.9151434439        1.5592479725       -1.5376937241
 H         -6.2443146169        3.0746023333       -0.9440656406
 C         -4.8199946127        1.8123367558       -1.9345420858
 H         -5.1378385060        1.9461405286       -2.9706042168
 H         -4.4509590850        0.7893930951       -1.8406119423
 C         -3.6913955437        2.8097118127       -1.6334461834
 H         -4.0927329376        3.6188738352       -1.0230302657
 H         -3.3569477050        3.2639754234       -2.5683007508
 C         -2.4427639622        2.2229986755       -0.9502679531
 H         -1.7032045986        1.9574314119       -1.7120933085
 H         -1.9923129541        2.9967913244       -0.3201830463
 H         -6.8271044444        1.7055763222        0.9246090757
 H         -6.0016706172        0.2936783696        0.2732296216
 H         -4.3870536722        2.7731896645        0.9500299221
 H         -4.8864762269        1.6229050829        2.2030175547
 O         -3.6829903517       -0.3439697264        1.5273111203
 C         -2.8234139676       -1.4088602897        1.3390167041
 O         -3.0485705538       -2.3904371751        2.0746161027
 O         -0.7316150089        0.0408972287       -1.2392091918
 C         -0.8959715936       -2.4831695229        0.1894777218
 C          0.5062734905       -2.0689859087        0.5596640425
 C          0.8163241836       -1.8683748798        1.9024239292
 C          2.0718974829       -1.4323115904        2.2807948983
 C          3.0396427741       -1.1654337323        1.3270720953
 C          2.7323970653       -1.3453935602       -0.0145219152
 C          1.4793682041       -1.8121072957       -0.3911824539
 H          1.2590153390       -1.9431959035       -1.4382845699
 N          3.6897473308       -1.0343077304       -0.9939741729
 S          4.5933608473        0.3569125674       -0.7883172093
 O          4.9190330298        0.7996401863       -2.1268026328
 O          5.7246768128        0.0720625481        0.0611180065
 C          3.5364171962        1.5486217260        0.0216487484
 C          4.0507367085        2.2749478624        1.0775425045
 C          3.2488963512        3.2154881041        1.7032247302
 C          1.9476469908        3.4109499911        1.2670213510
 C          1.4466058620        2.6739193148        0.2058045193
 C          2.2448091714        1.7358688426       -0.4284779421
 H          1.8501701658        1.1506076495       -1.2434979395
 H          0.4317756129        2.8076851635       -0.1328246565
 H          1.3193063236        4.1383131610        1.7566675969
 H          3.6384458500        3.7887283214        2.5290081731
 H          5.0640142996        2.0826425947        1.3914724969
 H          3.3435285627       -1.1061257265       -1.9397167997
 H          4.0230650135       -0.8198943174        1.6027650336
 H          2.2999505235       -1.2906493940        3.3261824271
 H          0.0524173745       -2.0540039825        2.6451521825
 H         -1.2314688790       -3.2394982918        0.9115843001
 C         -1.0255964555       -3.0535902879       -1.2074103489
 C         -0.5253942978       -4.4373420944       -1.4901793814
 C         -1.9986770161       -4.1653117574       -1.4536842128
 H         -2.5482174383       -4.1726212316       -2.3831959607
 H         -2.5669352877       -4.5273765572       -0.6092360259
 H         -0.0634802447       -4.6363341709       -2.4453201065
 H         -0.0907192961       -4.9866506171       -0.6688357210
 H         -0.9255834499       -2.3068618224       -1.9860260211
