  62
        -98.93704431
 C         -1.7755180900       -1.0328802202       -0.1257368899
 C         -3.1517473100       -1.3243669901        0.0416892702
 C         -4.1074397499       -0.2661789099       -0.3276899796
 C         -3.6423668898        0.9211416201       -0.7582689594
 C         -4.3700676797        2.1578100803       -1.2419275892
 C         -5.8549876796        2.3559687304       -0.9472468991
 C         -6.1977606195        2.5385681902        0.5305525210
 H         -5.7879898494        3.4937623801        0.8686234011
 H         -7.2848463495        2.5917632703        0.6230484910
 C         -5.6729942096        1.4535851600        1.4679049308
 H         -4.5812321096        1.4734029699        1.4776797507
 H         -6.0073413395        1.6967134098        2.4801507908
 C         -6.1408363198        0.0336762601        1.1529735805
 H         -5.8413342998       -0.6037384201        1.9892448804
 H         -7.2304293098        0.0107704302        1.0898526906
 C         -5.5605674399       -0.5879487498       -0.1303211096
 H         -6.1376959099       -0.3014533295       -1.0065683195
 H         -5.6251565000       -1.6759485798       -0.0368783198
 H         -6.1555368495        3.2678998205       -1.4704576889
 H         -6.4367146397        1.5437654006       -1.3731751092
 H         -4.2279878397        2.1816671405       -2.3283099092
 H         -3.8092464795        3.0070668102       -0.8391116991
 O         -2.3054324497        1.1694565500       -0.8673152794
 C         -1.3430614298        0.2201195598       -0.5551825397
 O         -0.1755937798        0.6268931597       -0.6954916496
 O         -3.5692225701       -2.4287076201        0.4815463900
 C         -0.7738099301       -2.1146839504        0.2321757399
 C          0.3492056400       -1.5473335806        1.0638691700
 C          0.0435291102       -0.9839033808        2.3009714201
 C          1.0358381003       -0.4584524211        3.1043987901
 C          2.3574299802       -0.4876708711        2.6935910900
 C          2.6752579801       -1.0513147810        1.4644234399
 C          1.6740484700       -1.5787682907        0.6582612999
 H          1.9480368999       -1.9835523306       -0.3010731202
 N          4.0157479101       -1.1358699510        1.0449463798
 S          4.5109980001       -0.5405333508       -0.4381456101
 O          3.7565157900       -1.1575994706       -1.4967625401
 O          5.9404530401       -0.7672551010       -0.4579928002
 C          4.2010849203        1.2147429392       -0.3577288698
 C          2.9053295003        1.6813654094       -0.4509424696
 C          2.6817762905        3.0446923794       -0.3274244594
 C          3.7433272806        3.9102302792       -0.1152169693
 C          5.0387413605        3.4229222190       -0.0239576494
 C          5.2709683704        2.0625435690       -0.1408068797
 H          6.2600076303        1.6380408289       -0.0778776698
 H          5.8643175106        4.0967719789        0.1398822907
 H          3.5592323607        4.9690532192       -0.0213332091
 H          1.6697963405        3.4110459795       -0.3978917993
 H          2.0854559402        1.0004424795       -0.6159939997
 H          4.6797243102       -0.8498371012        1.7510806299
 H          3.1361312903       -0.0802282713        3.3205919301
 H          0.7810854604       -0.0211246712        4.0580286902
 H         -0.9895933798       -0.9600886907        2.6211228501
 H         -1.3422287401       -2.8147254304        0.8681002098
 C         -0.2810131802       -2.9187616902       -0.9615304803
 C         -1.1374128503       -3.1186335999       -2.1750363302
 C          0.0971632198       -2.2745908800       -2.2600207602
 H          0.9571144297       -2.6561820200       -2.7914044303
 H         -0.0131612401       -1.2043190700       -2.3384210800
 H         -1.1341012904       -4.0880804198       -2.6502039304
 H         -2.0970803102       -2.6229582598       -2.1998137001
 H          0.3165714497       -3.7722098803       -0.6542197904
