  62
        -98.94015529
 C         -1.7245124004       -1.1127325207        0.3869317388
 C         -2.0196168404       -0.0349639004       -0.4844140608
 C         -3.4238709504        0.0740714298       -0.9084654308
 C         -4.3344023304       -0.8108270204       -0.4663639612
 C         -5.7942305204       -0.8405466003       -0.8297722812
 C         -6.6660922904        0.1043015693        0.0086197192
 C         -6.5003832105        1.5922939795       -0.3030235901
 H         -6.6148609904        1.7531215799       -1.3754560701
 H         -7.3188775805        2.1167207892        0.1940875901
 C         -5.1698073105        2.1943604593        0.1702316502
 H         -4.7094874005        1.5299474690        0.9051107499
 H         -5.3582480605        3.1454385190        0.6733168106
 C         -4.1630690405        2.4660585798       -0.9477441097
 H         -4.5559581605        3.2350699501       -1.6168232794
 H         -3.2434164905        2.8491535396       -0.4974264795
 C         -3.7994637204        1.2318064802       -1.7831405902
 H         -4.6277068404        0.9626037204       -2.4385798404
 H         -2.9309464704        1.4797611404       -2.3988698501
 H         -7.7082745704       -0.1686341206       -0.1722766909
 H         -6.4550900104       -0.0719040511        1.0658729591
 H         -6.1355728204       -1.8640638704       -0.6603773916
 H         -5.9132251904       -0.6050168098       -1.8877525411
 O         -4.0134583604       -1.8238569908        0.3816942084
 C         -2.7174656104       -1.9822513310        0.8466478884
 O         -2.5785214504       -2.9194503113        1.6573531680
 O         -1.1724490104        0.7986582098       -0.8961631704
 C         -0.3228031104       -1.3451583409        0.9250467587
 C          0.2979387696       -0.0340580411        1.3397828293
 C         -0.3149614305        0.7011945884        2.3512955896
 C          0.2110267795        1.9100429883        2.7621000601
 C          1.3693351895        2.4019358085        2.1869789503
 C          1.9961486195        1.6707943490        1.1843546700
 C          1.4587204396        0.4605505892        0.7668412395
 H          1.9279118796       -0.0664966205       -0.0457034507
 N          3.2031392895        2.1214615293        0.6420750902
 S          3.8583471696        1.5812723899       -0.7885367800
 O          5.0165307295        2.4312188000       -0.9749294496
 O          2.9122708396        1.5702682904       -1.8785102000
 C          4.4005497596       -0.0764618502       -0.4263389307
 C          4.9595458296       -0.3514599508        0.8058208292
 C          5.3892069296       -1.6417818209        1.0720900386
 C          5.2587188496       -2.6289200305        0.1071356482
 C          4.7030484996       -2.3351424099       -1.1284377017
 C          4.2711327796       -1.0466273098       -1.4002496111
 H          3.8239999596       -0.7739648094       -2.3435402810
 H          4.6021915797       -3.1033784996       -1.8786295920
 H          5.5902670297       -3.6333034205        0.3184532678
 H          5.8218740596       -1.8745094413        2.0317552285
 H          5.0428129495        0.4370590389        1.5347819595
 H          3.4803472695        3.0603122592        0.8818503607
 H          1.7824369095        3.3464515884        2.5065474808
 H         -0.2830608305        2.4763684779        3.5374535603
 H         -1.2215048805        0.3166669082        2.7996709994
 H         -0.4658173804       -1.9498199313        1.8362912184
 C          0.5691314496       -2.1610575805        0.0008085283
 C         -0.0091967703       -3.1942268801       -0.9179656721
 C          0.5940482696       -1.9442684399       -1.4809630416
 H          1.5425403197       -2.0163802996       -1.9924805616
 H         -0.0587291604       -1.1877555597       -1.8874695213
 H          0.5241540097       -4.1244028101       -1.0419820425
 H         -1.0840680303       -3.3009044301       -0.9401068122
 H          1.5155402996       -2.4133229707        0.4705092282
