  62
        -98.94464872
 C         -1.6756717832       -1.4824429961       -0.2667125240
 C         -1.5558233181       -0.2562303708       -0.9663632677
 C         -2.8092784394        0.4849609396       -1.1803193872
 C         -3.9687176032       -0.0227557182       -0.7265741499
 C         -5.3004856770        0.6634005054       -0.8117610023
 C         -5.5634714312        1.5132329082        0.4394758671
 C         -4.3999825713        2.4285563915        0.8226107211
 H         -4.7103040489        2.9978969466        1.7016184864
 H         -3.5447518943        1.8181989874        1.1234279779
 C         -3.9626146396        3.3979299474       -0.2844232172
 H         -3.8157920283        4.3871131369        0.1545255181
 H         -4.7530798219        3.4881136061       -1.0307258648
 C         -2.6523070433        3.0222212474       -0.9795553047
 H         -2.3350511052        3.8743212672       -1.5873456978
 H         -1.8710853201        2.8501058845       -0.2332444612
 C         -2.7161146866        1.7991502946       -1.9029949113
 H         -3.5426694624        1.9125503623       -2.6075622527
 H         -1.7812660835        1.7661072181       -2.4699362971
 H         -5.7599203267        0.8422272690        1.2788809273
 H         -6.4583921631        2.1140280681        0.2676930373
 H         -5.3257942335        1.2896614816       -1.7012336842
 H         -6.0768993807       -0.0991964825       -0.8918377716
 O         -4.0489292308       -1.2141062614       -0.0814048762
 C         -2.9114974408       -1.9570665864        0.1818763807
 O         -3.1279009189       -3.0152496703        0.8065593936
 H          1.6594823208       -0.5937039650        0.1377513918
 C          1.2864095282       -0.8130866717        1.1220528769
 C          0.2179920761       -1.6825041494        1.2774902945
 C         -0.2608069834       -1.9343397537        2.5607701650
 C          0.3221157688       -1.3322764328        3.6594032736
 C          1.3845894864       -0.4594610620        3.4993283185
 C          1.8635461455       -0.1930048654        2.2223854981
 N          2.9508352968        0.6723456489        2.0277764837
 S          2.8830529021        1.8211172129        0.8008603522
 O          3.8492805951        2.8219697842        1.2091851157
 O          1.5353186769        2.2939747577        0.5970637138
 C          3.5217718759        0.9721758351       -0.6268255635
 C          2.7224115251        0.7503374847       -1.7300138432
 C          3.2613275224        0.0757572753       -2.8155910343
 C          4.5775692636       -0.3573936777       -2.7807416646
 C          5.3672735892       -0.1206645355       -1.6652593414
 C          4.8365225801        0.5510762442       -0.5765136300
 H          5.4153653387        0.7622217287        0.3069973896
 H          6.3904694093       -0.4595449612       -1.6412971130
 H          4.9884976291       -0.8838105501       -3.6279993418
 H          2.6433232054       -0.1123374426       -3.6794747999
 H          1.6932914264        1.0751262905       -1.7138717980
 H          3.3182576742        1.0778950597        2.8767979442
 H          1.8381787067        0.0156004133        4.3564262805
 H         -0.0559314505       -1.5388484038        4.6495399399
 H         -1.1040834791       -2.6002462362        2.6813486790
 C         -0.4649216255       -2.3313492286        0.0962690321
 H         -0.8703862609       -3.2939372008        0.4369880092
 C          0.4630579460       -2.5818131064       -1.0736795582
 C          1.5402105196       -3.6143773611       -0.9367795705
 C          0.3640600481       -3.8713404483       -1.8290333282
 H          0.5123903221       -3.8532345923       -2.8982028342
 H         -0.3768304657       -4.5875169327       -1.5041068042
 H          1.5951017211       -4.1547993243       -0.0037325069
 H          2.4998621539       -3.4196311928       -1.3903883550
 H          0.6886991632       -1.6923706576       -1.6463822687
 O         -0.4732263346        0.2064930012       -1.4087727198
