  62
        -98.94432629
 C          1.8333594318        1.0789849205       -0.1542912644
 C          2.3287889608       -0.0572266486       -0.8378599105
 C          3.7922722677       -0.1976392846       -0.8647266833
 C          4.5570617237        0.7408978127       -0.2775745468
 C          6.0540833431        0.6913020459       -0.1833961807
 C          6.5061261130       -0.0075646235        1.1066645914
 C          5.8123802436       -1.3460022424        1.3603962928
 H          6.2300314194       -1.7592982194        2.2810176726
 H          4.7494860555       -1.1693219832        1.5403459615
 C          5.9685013429       -2.3673826569        0.2251728663
 H          6.8016971802       -2.0821404837       -0.4181506065
 H          6.2122152135       -3.3392925970        0.6593959309
 C          4.7143395669       -2.5634693500       -0.6288236578
 H          4.8619239016       -3.4499584165       -1.2515915532
 H          3.8549949519       -2.7583980942        0.0181182718
 C          4.3567911602       -1.4016901854       -1.5643917082
 H          3.5702991868       -1.7502036575       -2.2404528810
 H          5.2283069186       -1.1287518570       -2.1630179871
 H          7.5858587943       -0.1593075190        1.0567950913
 H          6.2942763625        0.6530470392        1.9505242458
 H          6.4330687210        1.7146422324       -0.1837528926
 H          6.4501805738        0.1674752931       -1.0511118261
 O          4.0436789386        1.8301230251        0.3493544555
 C          2.6743579627        2.0208539375        0.4379272278
 O          2.3356136582        3.0471260847        1.0610722589
 O          1.5914709590       -0.9115647813       -1.3956947970
 C          0.3350002161        1.3103264852       -0.0603105344
 C         -0.3269339348        0.1105429703        0.5705596814
 C          0.1741117361       -0.3619334732        1.7820725971
 C         -0.3742933024       -1.4732674345        2.3899352318
 C         -1.4448183670       -2.1314496913        1.8095696299
 C         -1.9594496088       -1.6626991986        0.6076016704
 C         -1.4084237784       -0.5407839730       -0.0001143320
 H         -1.8165588165       -0.2115258927       -0.9407479745
 N         -3.0377400769       -2.3160456659       -0.0026220071
 S         -4.1887203776       -1.4656980115       -0.8542096251
 O         -5.3525573136       -2.3267382807       -0.8391299448
 O         -3.6977914486       -1.1022702210       -2.1594363498
 C         -4.5117171399        0.0042812226        0.1057349847
 C         -4.7439385431       -0.1199428606        1.4614769863
 C         -5.0024882167        1.0204333212        2.2041459012
 C         -5.0299806113        2.2596517975        1.5826026936
 C         -4.8042157887        2.3670272644        0.2194908828
 C         -4.5415040184        1.2293904324       -0.5270638967
 H         -4.3540932291        1.2679581824       -1.5877456548
 H         -4.8285389612        3.3302458366       -0.2647913710
 H         -5.2295305920        3.1463682649        2.1634331153
 H         -5.1806105248        0.9400564193        3.2643515566
 H         -4.7241314651       -1.0952200511        1.9193655388
 H         -3.4315989715       -3.0848719635        0.5181125213
 H         -1.8691294941       -3.0075923594        2.2757397712
 H          0.0324652022       -1.8320334132        3.3234477721
 H          1.0129762630        0.1516042412        2.2326267505
 H          0.2013896178        2.1699527826        0.6125262343
 C         -0.2154396468        1.6710558429       -1.4236563541
 C         -1.4194306994        2.5537525807       -1.5440517821
 C         -0.0648244273        3.0806872909       -1.9086397085
 H          0.1636434988        3.2464353021       -2.9508359616
 H          0.4101995331        3.7842324812       -1.2402571959
 H         -2.1203737427        2.3549084925       -2.3406523286
 H         -1.8735642737        2.9066496804       -0.6306432012
 H         -0.0886792450        0.8765892215       -2.1507543398
