  62
        -98.93956521
 C         -2.5718966531       -0.7510689696        0.6742784545
 C         -3.0595382374       -0.2181176129       -0.5437152493
 C         -3.5966333999        1.1489629951       -0.4729622554
 C         -3.5932964683        1.8004040448        0.7042440144
 C         -4.0567640149        3.2137407904        0.9042866839
 C         -2.8989865488        4.2073316946        0.7332289604
 C         -2.0777548840        3.9868003722       -0.5373644567
 H         -1.3094972251        4.7624202173       -0.5667381213
 H         -1.5618798328        3.0260436416       -0.4683953465
 C         -2.8950430125        4.0278850299       -1.8361358441
 H         -2.3559869648        4.6304997684       -2.5700491502
 H         -3.8529651848        4.5171643203       -1.6560651690
 C         -3.1379328990        2.6597612366       -2.4764007748
 H         -2.1891475233        2.1255410904       -2.5742076817
 H         -3.5273027376        2.8208371725       -3.4851792652
 C         -4.1299365484        1.7471887445       -1.7441782918
 H         -5.0593585915        2.2884783786       -1.5561331129
 H         -4.3505109936        0.9019088866       -2.4025933365
 H         -3.3098062863        5.2185008320        0.7318901781
 H         -2.2319284625        4.1125732561        1.5931760919
 H         -4.8479332131        3.4348818336        0.1907156316
 H         -4.4559761235        3.3049247207        1.9158255984
 O         -3.1105638170        1.2563848305        1.8512937339
 C         -2.5763096152       -0.0213442587        1.8623489853
 O         -2.1385022532       -0.3865264836        2.9734188955
 H          0.1164081015       -0.5491001925        0.8283621103
 C          0.2419515038       -1.2773954172        0.0352495014
 C         -0.7660479264       -2.2100689871       -0.1818807867
 C         -0.5913600550       -3.1507654721       -1.1867155521
 C          0.5548027732       -3.1380942956       -1.9639388731
 C          1.5470730133       -2.1987753942       -1.7559325793
 C          1.3894472850       -1.2608772587       -0.7425573120
 N          2.3899481902       -0.2891098747       -0.5218928148
 S          3.9675013692       -0.8737619770       -0.3366727854
 O          4.4724419575       -1.2435474283       -1.6343096992
 O          3.9977367014       -1.9105592053        0.6719393979
 C          4.8108716989        0.5838838524        0.2435940206
 C          5.0653249532        0.7298243377        1.5937849765
 C          5.7101429056        1.8751715180        2.0340477356
 C          6.0837676464        2.8504629930        1.1218346323
 C          5.8202357042        2.6897619558       -0.2305443192
 C          5.1777752806        1.5463646638       -0.6777020608
 H          4.9617706544        1.3735883987       -1.7189610027
 H          6.1143531903        3.4498138132       -0.9362408070
 H          6.5862667314        3.7400928854        1.4673103390
 H          5.9186471072        2.0012070828        3.0843300505
 H          4.7645147968       -0.0578977186        2.2661290836
 H          2.1575916772        0.3005540921        0.2670740008
 H          2.4442805975       -2.1863829008       -2.3527778217
 H          0.6761379059       -3.8714039581       -2.7470275140
 H         -1.3529837176       -3.8909994283       -1.3675861488
 C         -1.9836742939       -2.1507550535        0.7098360373
 H         -1.6486201167       -2.3128131927        1.7450489149
 C         -3.0409421707       -3.1809613426        0.3752868402
 C         -2.9121774700       -4.5817230286        0.8911101467
 C         -3.9489408843       -3.6641654918        1.4644254025
 H         -4.9868144403       -3.8447050234        1.2283128165
 H         -3.7901417786       -3.2660594108        2.4563512368
 H         -2.0491915422       -4.8134866265        1.4971374928
 H         -3.2407530728       -5.3957170781        0.2628147120
 H         -3.4738570509       -3.0325719127       -0.6068872643
 O         -3.0497651027       -0.8466885322       -1.6333820360
