  62
        -98.94390301
 C         -1.8853348445       -0.5412796215        0.8415041905
 C         -2.2440007214        0.4916657717       -0.0576923431
 C         -3.6832665468        0.7639558327       -0.1689311073
 C         -4.5577585090        0.0671153431        0.5794775832
 C         -6.0515891763        0.2476511588        0.5956246401
 C         -6.7838763860       -0.5083986867       -0.5213474115
 C         -6.6161426610        0.0793198773       -1.9230509395
 H         -7.3489150641       -0.4121101875       -2.5661441513
 H         -6.8616269005        1.1415509596       -1.9026046852
 C         -5.2193540780       -0.1161345180       -2.5290934579
 H         -4.6889246397       -0.8970112882       -1.9793051582
 H         -5.3151440544       -0.4605448453       -3.5613333100
 C         -4.3554316301        1.1450518563       -2.5518542560
 H         -4.8104798673        1.8897328055       -3.2088928867
 H         -3.3778137959        0.8844428790       -2.9659153253
 C         -4.1298267882        1.7819663062       -1.1742627634
 H         -3.3351918398        2.5267817469       -1.2666227013
 H         -5.0387114488        2.2797341898       -0.8365528589
 H         -6.4464649457       -1.5473492667       -0.5192115385
 H         -7.8479463601       -0.5038708905       -0.2741861671
 H         -6.4001868353       -0.1364495967        1.5566965008
 H         -6.2931713426        1.3092560694        0.5371521879
 O         -4.1679685347       -0.8999673514        1.4521265070
 C         -2.8316855830       -1.2397259290        1.5909922404
 O         -2.6165248001       -2.1572347494        2.4088004621
 H          2.0064051277       -0.0719417422        0.0301256942
 C          1.6198828033        0.5584848988        0.8129679076
 C          0.3970274290        0.2741618857        1.4013333256
 C         -0.0685297621        1.1121067834        2.4114810465
 C          0.6558339292        2.2226458077        2.7972167946
 C          1.8627316617        2.5188128046        2.1887484729
 C          2.3467993970        1.6792349998        1.1927449654
 N          3.5927461469        1.9292937746        0.6075357062
 S          4.0186809723        1.3911734255       -0.9115966978
 O          5.2182181243        2.1411394486       -1.2222283484
 O          2.9429944711        1.5032090995       -1.8677143769
 C          4.4588639901       -0.3184185221       -0.6732906301
 C          5.0802537712       -0.7022127144        0.4985188151
 C          5.4560094882       -2.0270106880        0.6536043821
 C          5.2158258862       -2.9395216520       -0.3621481080
 C          4.5974287078       -2.5373260155       -1.5356432511
 C          4.2135648791       -1.2147222037       -1.6945137135
 H          3.7176002728       -0.8616380650       -2.5850884448
 H          4.4118398032       -3.2475332900       -2.3259038981
 H          5.5097027928       -3.9698745600       -0.2392208664
 H          5.9356773007       -2.3437052240        1.5656437099
 H          5.2529204168        0.0308725463        1.2683838980
 H          4.0207874114        2.8114527603        0.8436173896
 H          2.4252529007        3.3921213381        2.4815616381
 H          0.2758757778        2.8686169626        3.5745500625
 H         -1.0159423073        0.8857452608        2.8820921595
 C         -0.4272769888       -0.9274705133        1.0094568308
 H         -0.3987608324       -1.6470308457        1.8412871733
 C          0.0719205334       -1.6161950024       -0.2442462535
 C          1.1216545989       -2.6815103041       -0.1534535082
 C         -0.2950630116       -3.0506582606       -0.4729701887
 H         -0.5342076367       -3.3679263970       -1.4769463247
 H         -0.8849921522       -3.5362642889        0.2909923149
 H          1.8593445216       -2.7461198595       -0.9388155641
 H          1.5002104516       -2.9271319157        0.8270696914
 H          0.0818992288       -0.9568364744       -1.1057613815
 O         -1.4108691484        1.1559259938       -0.7280281413
