  62
        -98.94392417
 C         -2.1881408811       -0.7590653401        0.4618230691
 C         -2.5144766878       -0.1023117486       -0.7494693242
 C         -3.4433001465        1.0314884962       -0.6300100395
 C         -3.8729359012        1.4075874283        0.5883078781
 C         -4.8622922779        2.5056226566        0.8483837341
 C         -6.2975128343        1.9612849818        0.8790039575
 C         -6.6453369486        1.0687943666       -0.3124537160
 H         -6.0433080733        0.1585191932       -0.2636296507
 H         -7.6895701709        0.7694118566       -0.1997488840
 C         -6.4484852447        1.7334182460       -1.6821662630
 H         -7.3173389962        1.5128922180       -2.3057557616
 H         -6.4010185652        2.8165964202       -1.5646902775
 C         -5.2158634227        1.2523072186       -2.4501764896
 H         -5.2922122719        1.6169142317       -3.4779177786
 H         -5.2126311404        0.1601826076       -2.4897513491
 C         -3.8619227312        1.7181505582       -1.8995338832
 H         -3.0966727851        1.4675409940       -2.6400611055
 H         -3.8711045975        2.8020235629       -1.7679633718
 H         -6.4264636927        1.3774855335        1.7934308253
 H         -6.9862410623        2.8072338537        0.9163003985
 H         -4.6324155949        2.9543261507        1.8163842464
 H         -4.7666951656        3.2652023915        0.0749476614
 O         -3.4838906070        0.7916898555        1.7352427527
 C         -2.6469275997       -0.3120679843        1.6999027549
 O         -2.3787207990       -0.7914853790        2.8216082181
 H          0.1638534459        0.1881228511        1.0179668076
 C          0.6857219703       -0.4470001305        0.3108406717
 C          0.0758195619       -1.6182533580       -0.1222169541
 C          0.7656714694       -2.4299208058       -1.0131313310
 C          2.0221786709       -2.0661325976       -1.4662149508
 C          2.6190460599       -0.8942069505       -1.0401497650
 C          1.9423526440       -0.0794731327       -0.1418002702
 N          2.5537978631        1.1142880738        0.3023131133
 S          3.9332731265        0.9063625902        1.2477758791
 O          3.8562247309       -0.3091423237        2.0269658622
 O          4.0754771508        2.1381821445        1.9932324712
 C          5.2528508010        0.7827011155        0.0600202464
 C          5.4887209378        1.8617214578       -0.7695135659
 C          6.5137334115        1.7786133252       -1.6983593016
 C          7.2821814934        0.6265311498       -1.7790178549
 C          7.0346649554       -0.4462434665       -0.9361328296
 C          6.0098257710       -0.3705984954       -0.0057271005
 H          5.7752413989       -1.1801769725        0.6664335052
 H          7.6332263763       -1.3406353367       -1.0002372729
 H          8.0790635234        0.5647095038       -2.5032059163
 H          6.7094380632        2.6104753882       -2.3556100753
 H          4.8705872616        2.7383823625       -0.6700082579
 H          1.9124645391        1.7237651007        0.7910772565
 H          3.5928786754       -0.6027247639       -1.3980007123
 H          2.5427301802       -2.7041996494       -2.1636914630
 H          0.3179545065       -3.3485252803       -1.3548860578
 C         -1.2793513299       -1.9738770072        0.4410986847
 H         -1.1348147927       -2.2622191277        1.4935792118
 C         -1.9562159885       -3.1161671088       -0.2885875103
 C         -1.6744371963       -4.5355932922        0.0995361764
 C         -2.9970875349       -3.9158200552        0.4336874130
 H         -3.8721941514       -4.2368629439       -0.1110743830
 H         -3.1959917277       -3.6541311346        1.4632751593
 H         -1.6445682024       -5.2864238279       -0.6755750528
 H         -0.9774041339       -4.7046514664        0.9065378450
 H         -2.1323096417       -2.8936366404       -1.3346291725
 O         -2.0575957404       -0.4443833657       -1.8703715774
