  62
        -98.93949430
 C         -1.9242186294       -1.3725927682        0.2502156970
 C         -1.7329909847        0.0096066929        0.0247648130
 C         -2.8867217012        0.8819453708        0.3057343470
 C         -4.0325177445        0.3381045633        0.7507397308
 C         -5.3155220429        1.0319552446        1.1353681950
 C         -5.8022321014        2.1750902188        0.2348141552
 C         -5.4856368081        2.0045086445       -1.2581918379
 H         -5.1350586387        0.9895223355       -1.4534523004
 H         -6.4017633993        2.1482384704       -1.8341218605
 C         -4.4486902137        3.0087426314       -1.7670468352
 H         -4.6782371770        3.9913064586       -1.3489660061
 H         -4.5389561926        3.0870137015       -2.8532159669
 C         -2.9930400262        2.6609957644       -1.4580178722
 H         -2.6832075355        1.7989367245       -2.0552684596
 H         -2.3722777532        3.5044209998       -1.7700845268
 C         -2.6874616185        2.3415656712        0.0143627718
 H         -1.6254080044        2.5373304747        0.1847836429
 H         -3.2696315469        2.9702571249        0.6835406921
 H         -5.3812050736        3.1177022587        0.5814976331
 H         -6.8826474755        2.2450689419        0.3719340852
 H         -6.0685749450        0.2405946477        1.1607283630
 H         -5.2067168695        1.4041371843        2.1582881672
 O         -4.1703071142       -1.0031415998        0.9564156126
 C         -3.1333121092       -1.8868195394        0.7145729317
 O         -3.4052660523       -3.0809519656        0.9528921613
 H          1.8097141278       -1.8786336560       -0.8719250834
 C          1.6714103271       -1.7588928188        0.1890008032
 C          0.4288850249       -1.9496448700        0.7714332982
 C          0.3047933151       -1.7805406545        2.1489972899
 C          1.3924667472       -1.4176869300        2.9184547848
 C          2.6273633337       -1.2054199481        2.3292839914
 C          2.7635775989       -1.3764188717        0.9579069941
 N          4.0103354220       -1.1915209276        0.3301940275
 S          4.1550892288       -0.0889884414       -0.9227696966
 O          3.2828421769       -0.4568450208       -2.0065415342
 O          5.5705234133       -0.0638929782       -1.2233253356
 C          3.6778912501        1.4743267779       -0.2071534120
 C          4.6773170788        2.3323892777        0.2116611518
 C          4.3289880254        3.5244718123        0.8245149443
 C          2.9907047439        3.8332635044        1.0173343756
 C          2.0020807643        2.9585606666        0.5954644616
 C          2.3408131900        1.7646729477       -0.0236997550
 H          1.5778834373        1.0783723016       -0.3560255747
 H          0.9588058885        3.1888908500        0.7433139483
 H          2.7160052363        4.7592518997        1.4977888973
 H          5.0982340819        4.2056854892        1.1511035927
 H          5.7036270607        2.0516297250        0.0376042981
 H          4.7730824458       -1.0531001687        0.9787572813
 H          3.4780201599       -0.9145022519        2.9269630147
 H          1.2785929279       -1.2911588553        3.9845032473
 H         -0.6632425212       -1.9370779797        2.6062666780
 C         -0.7920856445       -2.3465755963       -0.0216574809
 H         -1.1366762713       -3.3241939117        0.3463836106
 C         -0.5401343577       -2.4514786595       -1.5113227795
 C          0.0326181569       -3.7090914574       -2.0899080320
 C         -1.4041353352       -3.3585724971       -2.3323587443
 H         -1.6984279166       -3.0369749787       -3.3203057181
 H         -2.1648033813       -3.9227075636       -1.8119245160
 H          0.7290552095       -3.6257391352       -2.9108910468
 H          0.2487636759       -4.5190500155       -1.4095752904
 H         -0.2439379712       -1.5080740516       -1.9570116425
 O         -0.6479480911        0.5000338145       -0.3808143691
