  62
        -98.94391543
 C         -1.5865622296       -1.4374567195       -0.2147382604
 C         -2.7438494998       -0.9262436701        0.4097239997
 C         -3.2925429102        0.3331893299       -0.1277761600
 C         -2.6695659604        0.9178969003       -1.1684038598
 C         -3.0021352208        2.2244096404       -1.8384863395
 C         -2.5449471212        3.4333930803       -1.0081227193
 C         -2.8926310613        3.3587165399        0.4759939207
 H         -2.4115445110        2.4773750699        0.9055306805
 H         -2.4443457716        4.2292220099        0.9632672909
 C         -4.3846273213        3.3525164193        0.8025923307
 H         -4.8425273616        4.2550339092        0.3914617809
 H         -4.4751392113        3.4007227390        1.8908456807
 C         -5.1782890909        2.1378222491        0.3148076904
 H         -5.4085064208        2.2173736393       -0.7442486496
 H         -6.1367829309        2.1438213287        0.8421195103
 C         -4.5275812404        0.7906120493        0.6109845601
 H         -4.2761328504        0.7413566891        1.6768755401
 H         -5.2733444601        0.0013778291        0.4546832799
 H         -2.9758797315        4.3369183503       -1.4438454491
 H         -1.4561274513        3.5014025307       -1.0809880492
 H         -4.0649023408        2.2812273601       -2.0538994196
 H         -2.4655802208        2.2351394008       -2.7898863595
 O         -1.5634636502        0.3776065208       -1.7524053499
 C         -0.9790820498       -0.7795473891       -1.2823349802
 O          0.0507727403       -1.1271898386       -1.8941166702
 O         -3.2977193297       -1.4910659505        1.3943749296
 C         -0.9332786792       -2.6918909494        0.3338099194
 C          0.4965313506       -2.3997648991        0.7194095595
 C          1.5408161409       -3.2928736287        0.5121901493
 C          2.8363430908       -2.9546120383        0.8644354894
 C          3.1229678204       -1.7139629283        1.4039617297
 C          2.0836507001       -0.8181883687        1.6241202499
 C          0.7833697702       -1.1771481491        1.3130083498
 H         -0.0101538000       -0.4670352594        1.4953556499
 N          2.3143799496        0.4784067312        2.1349240802
 S          2.0110043593        1.7367589514        1.0637055305
 O          2.4007180488        2.9374359813        1.7731798908
 O          0.6473351593        1.6788118810        0.6092820804
 C          3.1619505794        1.4372146821       -0.2662286995
 C          4.3909208392        2.0685740925       -0.2204557694
 C          5.3342365193        1.7757904630       -1.1912460894
 C          5.0381655697        0.8499971131       -2.1808702296
 C          3.8020366499        0.2238534027       -2.2102245198
 C          2.8495356897        0.5147873022       -1.2444319498
 H          1.8797287299        0.0407337419       -1.2560266399
 H          3.5629403501       -0.4964664872       -2.9761035000
 H          5.7734943298        0.6152637136       -2.9342942096
 H          6.2948199692        2.2648999533       -1.1712623992
 H          4.5738226589        2.7817427723        0.5672879508
 H          3.2407691096        0.5998719314        2.5226330403
 H          4.1372159103       -1.4372293581        1.6497614598
 H          3.6362908711       -3.6591108180        0.6959973593
 H          1.3405059913       -4.2536982986        0.0668653691
 H         -1.4965598792       -2.9436285198        1.2453497493
 C         -1.0642847688       -3.8344161093       -0.6527477509
 C         -1.1770602384       -5.2487048994       -0.1689085112
 C         -2.3726659286       -4.5581262897       -0.7504709511
 H         -2.7234563285       -4.8604637196       -1.7257277012
 H         -3.1607586987       -4.2442755801       -0.0815175611
 H         -0.7085589681       -6.0304383391       -0.7476611014
 H         -1.1603231184       -5.4159194797        0.8974512587
 H         -0.5255416389       -3.6475264689       -1.5750853108
