  62
        -98.94042399
 C         -2.0552435355       -1.0468402335        0.4824918109
 C         -2.7403752320       -0.0917799086        1.2773064995
 C         -4.1614339853        0.1069396971        0.9781122128
 C         -4.7422308603       -0.6162222955        0.0037985603
 C         -6.1877494835       -0.5493432727       -0.4082325980
 C         -6.5028589069        0.5821243120       -1.3962261338
 C         -6.4910483130        1.9898038491       -0.7988135935
 H         -6.9394456918        2.6555971941       -1.5389444348
 H         -7.1267886110        2.0131569886        0.0868783022
 C         -5.0929532228        2.5165090974       -0.4455569137
 H         -4.3364355980        1.9171371621       -0.9576216876
 H         -4.9869342799        3.5411698426       -0.8091466309
 C         -4.7799813171        2.5331273289        1.0507961082
 H         -3.7535584224        2.8858834040        1.1814621891
 H         -5.4448059439        3.2369464426        1.5566642892
 C         -4.9021420514        1.1661949753        1.7366635714
 H         -5.9514583971        0.8928839264        1.8465290860
 H         -4.4527552395        1.2396877848        2.7301125025
 H         -5.7912048526        0.5320248327       -2.2235533624
 H         -7.4988879398        0.3918091357       -1.8026493681
 H         -6.4179357435       -1.5015637783       -0.8909961404
 H         -6.8167961926       -0.4472459319        0.4765762550
 O         -4.0584918316       -1.5336132440       -0.7264122567
 C         -2.6984541821       -1.7564510585       -0.5327223560
 O         -2.2173021502       -2.5972280135       -1.3128617553
 O         -2.1854270733        0.5573499591        2.2048409825
 C         -0.5802549544       -1.2394719770        0.7852936874
 C          0.2569913708       -0.3031321381       -0.0472754138
 C          0.1295067137       -0.2615832479       -1.4323586003
 C          0.9111522390        0.5969870969       -2.1838829090
 C          1.8354794121        1.4271538176       -1.5732362374
 C          1.9711606979        1.3918076404       -0.1923863465
 C          1.1846320711        0.5295688058        0.5608647155
 H          1.2840908732        0.5179879565        1.6378768571
 N          2.9344090619        2.2152713591        0.4270732315
 S          4.5253892772        1.9262850914       -0.0234052337
 O          5.3358641409        2.5194933494        1.0151298340
 O          4.7360636704        2.4188276041       -1.3601082751
 C          4.6581119233        0.1485727722        0.0105913220
 C          4.4257582658       -0.5731368469       -1.1430629617
 C          4.4237498658       -1.9572838082       -1.0767579686
 C          4.6523317268       -2.5921760877        0.1339119104
 C          4.8922398915       -1.8529263262        1.2823428778
 C          4.8881751557       -0.4687667213        1.2242779017
 H          5.0713307674        0.1423341850        2.0937954950
 H          5.0724439129       -2.3504922876        2.2217897960
 H          4.6397191004       -3.6691201698        0.1832318811
 H          4.2371074952       -2.5355882351       -1.9672253590
 H          4.2556400020       -0.0433092299       -2.0656861982
 H          2.8616036841        2.2233797306        1.4348563381
 H          2.4589812620        2.0958248172       -2.1446145513
 H          0.8001462421        0.6203332314       -3.2575289275
 H         -0.5851060662       -0.9145608317       -1.9105043164
 H         -0.4735633110       -0.9279490579        1.8365321863
 C         -0.1177393776       -2.6872724964        0.6914435184
 C          0.8785166931       -3.1769048804       -0.3126984705
 C          1.2718374590       -3.0497155372        1.1261064371
 H          1.4146971618       -3.9463117108        1.7093671757
 H          1.9354698505       -2.2389765312        1.3881776182
 H          0.7223231007       -4.1610015111       -0.7266934285
 H          1.2893335291       -2.4690919229       -1.0150458205
 H         -0.9076760463       -3.3814804571        0.9577768408
