  62
        -98.94455500
 C         -2.6143260240       -1.2513123720        0.1246691294
 C         -2.6433148142       -0.2977315109       -0.9215847057
 C         -3.4906553620        0.8829262425       -0.6934127429
 C         -4.1831975360        0.9950388999        0.4537588942
 C         -5.0350589067        2.1698951587        0.8351472573
 C         -4.2261569683        3.2120885897        1.6199722009
 C         -2.8959266765        3.5865588931        0.9655670193
 H         -2.4308923680        4.3535107653        1.5889660831
 H         -2.2294363096        2.7202325835        0.9799041603
 C         -3.0190299567        4.1058221967       -0.4737622488
 H         -2.3820895132        4.9861945651       -0.5827386854
 H         -4.0451031788        4.4205136937       -0.6681793736
 C         -2.5830392139        3.1077602802       -1.5482417516
 H         -1.5900903656        2.7187578236       -1.3035862001
 H         -2.4963958868        3.6458411894       -2.4962989505
 C         -3.5288976288        1.9219192610       -1.7786654707
 H         -4.5466471666        2.2878591536       -1.9275717203
 H         -3.2084100046        1.4144338587       -2.6932060546
 H         -4.8390793700        4.1075701401        1.7370006163
 H         -4.0155937011        2.8110489595        2.6139889125
 H         -5.4498742898        2.6190884257       -0.0649996229
 H         -5.8527824899        1.8113434100        1.4624929794
 O         -4.1465934499        0.0526390939        1.4287843185
 C         -3.3560523827       -1.0745442647        1.2980083614
 O         -3.4033702803       -1.8453938661        2.2770191747
 O         -2.0068749957       -0.4027685656       -2.0052541793
 C         -1.7613037655       -2.5121740458        0.0787668721
 C         -0.3254666642       -2.1531271922        0.3787999266
 C          0.2383370100       -2.4574721350        1.6127438926
 C          1.5349206111       -2.0750771861        1.9087284396
 C          2.2921435550       -1.3760469411        0.9854394967
 C          1.7332178377       -1.0573922363       -0.2448822804
 C          0.4404478081       -1.4582263447       -0.5464154009
 H          0.0056920939       -1.1858789820       -1.4964091195
 N          2.4863997025       -0.3225265440       -1.1823421478
 S          3.0723045559        1.1647508480       -0.6583897237
 O          2.2432571810        1.7227285758        0.3861522425
 O          3.2261957329        1.9632241656       -1.8550212146
 C          4.6864402917        0.7718793049       -0.0164110622
 C          5.0138679096        1.1066096111        1.2827573864
 C          6.2782950866        0.7928912430        1.7571029528
 C          7.1875328005        0.1538969976        0.9281433296
 C          6.8437525104       -0.1733731812       -0.3752295568
 C          5.5822745497        0.1388962942       -0.8559590767
 H          5.2758836834       -0.0937935538       -1.8620468645
 H          7.5535526458       -0.6702928978       -1.0167305245
 H          8.1698711252       -0.0905388009        1.3003328323
 H          6.5471512616        1.0468599816        2.7698987835
 H          4.2713375452        1.5967292483        1.8922851940
 H          2.0035397756       -0.2070487745       -2.0631007311
 H          3.2989910848       -1.0659743693        1.2135143298
 H          1.9590009599       -2.3192779416        2.8708141067
 H         -0.3577267715       -2.9787432147        2.3480801342
 H         -2.1267630379       -3.1448458484        0.8982338997
 C         -1.9036402495       -3.2816019788       -1.2191409446
 C         -1.5056434171       -4.7254685083       -1.2517788498
 C         -2.9532463632       -4.3448493496       -1.3255206848
 H         -3.4728761791       -4.4623263797       -2.2646132914
 H         -3.5735401984       -4.5231851268       -0.4590419067
 H         -1.0286604947       -5.1080560090       -2.1409370065
 H         -1.1441040323       -5.1641367374       -0.3340841471
 H         -1.7151113014       -2.6854944480       -2.1017786849
