  62
        -98.94571857
 C          2.3640534738        0.8523623321        0.2996792852
 C          2.1680207177       -0.0109172655       -0.8055569156
 C          2.5283392032       -1.4195711552       -0.5874007425
 C          2.9775977765       -1.8073084637        0.6200309656
 C          3.3119449486       -3.2210356674        0.9965040120
 C          2.0892172838       -3.9461558223        1.5765648382
 C          0.8252396153       -3.8114219263        0.7264626843
 H          0.0434101988       -4.3926427068        1.2198488456
 H          0.4997625860       -2.7683002096        0.7282343517
 C          0.9829712996       -4.2878349983       -0.7240100729
 H          1.8633901287       -4.9257089886       -0.8097661865
 H          0.1163488294       -4.8956122062       -0.9902058473
 C          1.0714126185       -3.1596803693       -1.7529608629
 H          0.2438060422       -2.4617159854       -1.6048388842
 H          0.9608801063       -3.5973984823       -2.7482919412
 C          2.3784442780       -2.3580795447       -1.7514604319
 H          3.2308085777       -3.0381836045       -1.8086876189
 H          2.3803903980       -1.7270903710       -2.6449026567
 H          2.3396265118       -5.0021347501        1.6935999199
 H          1.8816020528       -3.5355669810        2.5676464029
 H          3.6772455980       -3.7486820189        0.1176493832
 H          4.1012227773       -3.1995724931        1.7499134231
 O          3.1282713443       -0.9525177096        1.6650578606
 C          2.8254443721        0.3927904547        1.5325629532
 O          2.9973803738        1.0641272650        2.5715107345
 H          0.0418369751        1.3143424013        1.5812223273
 C         -0.3396550765        1.8827275337        0.7412438405
 C          0.5636555274        2.4985576835       -0.1174012311
 C          0.0668923584        3.2311780993       -1.1862268113
 C         -1.2994605067        3.3361840176       -1.3858167698
 C         -2.1951297180        2.7282567921       -0.5259872914
 C         -1.7088941629        1.9927949795        0.5489535453
 N         -2.5950220034        1.3964973972        1.4618616103
 S         -3.9466758188        0.5497981507        0.9679940802
 O         -4.8440365259        1.4432364442        0.2802052021
 O         -4.4528688093       -0.0664917109        2.1726641943
 C         -3.3689047966       -0.7109661893       -0.1521490333
 C         -3.0590198741       -1.9546616232        0.3622724815
 C         -2.6091542569       -2.9433555711       -0.4968597266
 C         -2.4648989733       -2.6690260811       -1.8483927623
 C         -2.7682149183       -1.4118315893       -2.3475905374
 C         -3.2273914582       -0.4209315540       -1.4944292304
 H         -3.4861869662        0.5619741944       -1.8511020548
 H         -2.6480864849       -1.1992836318       -3.3976310218
 H         -2.1160723269       -3.4400049789       -2.5170104307
 H         -2.3713940557       -3.9213427799       -0.1110709697
 H         -3.1947315005       -2.1288316204        1.4176828972
 H         -2.1350386935        0.9133926821        2.2189875459
 H         -3.2603764397        2.8181330056       -0.6639326569
 H         -1.6733362950        3.9070128043       -2.2223041736
 H          0.7467427973        3.7169930099       -1.8660222120
 C          2.0355924962        2.3300045953        0.1742824102
 H          2.2340230063        2.7697507908        1.1627534484
 C          2.9426550257        2.9904362495       -0.8418628591
 C          3.2434989981        4.4545181395       -0.7389327466
 C          4.3017911056        3.4466697392       -0.4075292295
 H          5.1301141643        3.3227559925       -1.0888686436
 H          4.5663304422        3.3019542830        0.6301837886
 H          3.3491521928        5.0257584186       -1.6487722665
 H          2.7925548222        5.0016527707        0.0752149798
 H          2.8555735442        2.5518500233       -1.8288256760
 O          1.7181252386        0.3703099559       -1.9163234928
