  62
        -98.93899090
 C          1.8673946782        0.7868869784       -0.1081848957
 C          2.4271900997        0.1486756438        1.0214867408
 C          3.5051875783       -0.8205046784        0.7609918680
 C          3.8649758495       -1.0689814287       -0.5104631996
 C          4.9681311277       -1.9730745737       -0.9862494652
 C          6.2686266054       -1.1780089335       -1.1926330018
 C          7.1426124271       -1.0370703188        0.0532037937
 H          7.5953596321       -2.0035796059        0.2844983861
 H          7.9525985948       -0.3474210245       -0.1950872092
 C          6.4249731107       -0.5220035954        1.3037155959
 H          7.1807835302       -0.1183110214        1.9802315475
 H          5.7601821110        0.3006578492        1.0342382642
 C          5.6344497947       -1.6144634474        2.0391484484
 H          5.9068127078       -1.6073720504        3.0965817966
 H          5.9299116582       -2.5891898641        1.6510624926
 C          4.1056263311       -1.4760162630        1.9748572305
 H          3.6527123425       -2.4657664037        2.0980862529
 H          3.7596588130       -0.8683117009        2.8169392761
 H          6.8607318536       -1.6700770289       -1.9669216800
 H          5.9988847150       -0.1875371131       -1.5680630121
 H          5.1167046880       -2.7979233862       -0.2955602759
 H          4.6483816948       -2.3740632945       -1.9504168731
 O          3.2732276440       -0.4590345894       -1.5738526304
 C          2.2677866981        0.4791501312       -1.4084346060
 O          1.8230984720        0.9508482085       -2.4709860852
 H         -0.3292178908       -0.5947501122        0.3373481743
 C         -0.9269704589        0.0339128814       -0.3112397496
 C         -0.5086122343        1.3356086424       -0.5621823669
 C         -1.2947271277        2.1359290991       -1.3799052461
 C         -2.4471708553        1.6301303467       -1.9577764368
 C         -2.8458035381        0.3271867865       -1.7265077226
 C         -2.0782473175       -0.4754372115       -0.8908571496
 N         -2.4816256046       -1.7958196680       -0.6331537290
 S         -4.1001666532       -2.0831624279       -0.3239906219
 O         -4.1220363190       -3.2711650724        0.5005336994
 O         -4.8247992007       -2.1691173892       -1.5675195235
 C         -4.6624046263       -0.6667046666        0.6041362331
 C         -5.6801852455        0.1223701324        0.1085655656
 C         -6.0818943127        1.2324466715        0.8343384930
 C         -5.4589650785        1.5344967669        2.0350752798
 C         -4.4397797899        0.7298111364        2.5215580893
 C         -4.0356716132       -0.3823337036        1.8013406708
 H         -3.2488493968       -1.0293086313        2.1556335389
 H         -3.9555213970        0.9655458379        3.4557058731
 H         -5.7687554410        2.4011303674        2.5974179602
 H         -6.8753308354        1.8586121490        0.4595043163
 H         -6.1344851786       -0.1474858168       -0.8308273637
 H         -1.8858386140       -2.2915982340        0.0127073102
 H         -3.7279454187       -0.0865015884       -2.1874252774
 H         -3.0409339560        2.2593775341       -2.6027919961
 H         -1.0000337327        3.1533184235       -1.5761966554
 C          0.7646391705        1.8099459281        0.0946790223
 H          0.5944808643        1.8421580362        1.1812420336
 C          1.2168124441        3.1787776259       -0.3677121525
 C          0.6543419743        4.4141322245        0.2676140992
 C          2.0684414853        4.0054345356        0.5471524149
 H          2.8708550275        4.5873602363        0.1190390280
 H          2.3008587427        3.5912936558        1.5175535996
 H          0.4868466798        5.2820647741       -0.3520045758
 H         -0.0741362985        4.2845032758        1.0533816821
 H          1.4498624306        3.2045213724       -1.4262162541
 O          2.0420129424        0.3774248483        2.2011486685
