  62
        -98.93750304
 C         -2.2541633083        0.7738493581       -0.0922133239
 C         -3.5742431392        1.1964095635       -0.3949662896
 C         -4.6587932564        0.5032105368        0.3119641042
 C         -4.3529663008       -0.4811319434        1.1762934672
 C         -5.3570613608       -1.3054404897        1.9277729083
 C         -5.7367517142       -2.5691817407        1.1432964278
 C         -6.1086172490       -2.3020078309       -0.3152437338
 H         -5.2239694981       -1.9459070698       -0.8482646419
 H         -6.3874365394       -3.2596108688       -0.7602074406
 C         -7.2533675775       -1.2969169630       -0.5047651769
 H         -7.9459451518       -1.6918550341       -1.2509487401
 H         -7.8088355084       -1.1883344520        0.4273892684
 C         -6.8112693614        0.0833748774       -0.9943082460
 H         -7.7026572863        0.6372041837       -1.3005458163
 H         -6.1756438420       -0.0264546820       -1.8765031458
 C         -6.0665682479        0.9483237106        0.0304558773
 H         -5.9842615492        1.9571881566       -0.3843481452
 H         -6.6445256568        1.0028991923        0.9552525437
 H         -6.5730276720       -3.0524668170        1.6516896698
 H         -4.8861285284       -3.2545442693        1.1598727136
 H         -6.2431204058       -0.7030454326        2.1186643578
 H         -4.9152805714       -1.5992504038        2.8814350466
 O         -3.0787211318       -0.8755223770        1.4253045893
 C         -1.9965824272       -0.2744766738        0.7920886538
 O         -0.8970983736       -0.7697821709        1.1033898342
 O         -3.8325190115        2.1093273308       -1.2237526646
 C         -1.1138766434        1.4768185318       -0.8061595170
 C         -0.1128613206        0.4733216822       -1.3210196438
 C         -0.5385516684       -0.4786179678       -2.2441345379
 C          0.3351185449       -1.4317204775       -2.7284369783
 C          1.6530849000       -1.4513679566       -2.3080334947
 C          2.0933024541       -0.4964106962       -1.3989787262
 C          1.2119292110        0.4602328667       -0.9147364395
 H          1.5692936094        1.1707193918       -0.1897483964
 N          3.4453241460       -0.4704030352       -1.0125391091
 S          3.9287820521        0.0678817475        0.5097757598
 O          3.3471272807       -0.7413418239        1.5570860264
 O          3.7146174422        1.4902602409        0.5976869494
 C          5.6782413474       -0.2618007829        0.3847377699
 C          6.2086370490       -1.3835996264        0.9925845319
 C          7.5650994669       -1.6389430841        0.8637228315
 C          8.3634045324       -0.7742844822        0.1304574881
 C          7.8171341951        0.3488956464       -0.4730072860
 C          6.4623054568        0.6104354176       -0.3465611301
 H          5.9955233384        1.4744754703       -0.7895675302
 H          8.4416155794        1.0204284653       -1.0397651829
 H          9.4184272833       -0.9752686259        0.0312606096
 H          7.9926055129       -2.5092455615        1.3350708905
 H          5.5505657046       -2.0229725032        1.5590524977
 H          3.9265078968       -1.3290333235       -1.2448473717
 H          2.3349369320       -2.2011129951       -2.6800370854
 H         -0.0121193428       -2.1709065436       -3.4349054550
 H         -1.5720598277       -0.4691445089       -2.5642649634
 H         -1.5911527600        1.9564669286       -1.6779552989
 C         -0.4739176280        2.5941774801        0.0039905086
 C         -1.2444082865        3.3461647619        1.0462611285
 C         -0.1275796571        2.4344112353        1.4528830792
 H          0.7971244889        2.8671581921        1.8076970811
 H         -0.3692994340        1.4939983962        1.9240697270
 H         -1.0938472844        4.4122959830        1.1246944208
 H         -2.2580742967        3.0306747960        1.2464658484
 H          0.2190731853        3.1801220814       -0.5929722150
