  62
        -98.94162199
 C          2.1225763260        0.8298544062        0.2856166289
 C          2.9781367835        0.2118255724        1.2326567144
 C          3.7553595914       -0.9390772142        0.7546752216
 C          3.5666577273       -1.3805991083       -0.5019029475
 C          4.3273200053       -2.5066864341       -1.1385430550
 C          5.5806895059       -1.9912707412       -1.8600985205
 C          6.4391632062       -1.0514337569       -1.0133430802
 H          7.3087393905       -0.7762450953       -1.6139258490
 H          5.8789085300       -0.1334545028       -0.8211149348
 C          6.9072570533       -1.6483455937        0.3212821014
 H          6.8140657012       -2.7346129715        0.2939850939
 H          7.9658497449       -1.4169183249        0.4560408917
 C          6.1735133551       -1.1079315870        1.5500781494
 H          6.1853821346       -0.0151107621        1.5328962953
 H          6.7213450254       -1.4266366328        2.4407412580
 C          4.7209896872       -1.5719178109        1.7168108160
 H          4.6723033552       -2.6608749697        1.6512268899
 H          4.3881468122       -1.2723026753        2.7150263306
 H          6.1769779321       -2.8509077071       -2.1712276821
 H          5.2660272165       -1.4532181785       -2.7573595451
 H          4.6064432049       -3.2283373324       -0.3730131645
 H          3.6744559152       -2.9950115251       -1.8642306366
 O          2.6788140739       -0.8139483318       -1.3571439973
 C          1.9393166350        0.3069803599       -0.9959336732
 O          1.1758649383        0.7140302831       -1.8902898226
 H         -0.2469055424        0.0382366699        1.4479641474
 C         -0.7898775973        0.7527417399        0.8399394594
 C         -0.1247247091        1.8790187430        0.3697428312
 C         -0.8265510223        2.7792280351       -0.4198001712
 C         -2.1557757107        2.5488265947       -0.7299525506
 C         -2.8127882795        1.4270883486       -0.2599958557
 C         -2.1182588862        0.5158257383        0.5251006713
 N         -2.7772919070       -0.6258491212        1.0156904094
 S         -3.6558375363       -1.5667687617       -0.0638846789
 O         -3.6819604836       -2.8868379698        0.5295972492
 O         -3.1333935836       -1.4758744210       -1.4072132855
 C         -5.2930078401       -0.8695728447        0.0089833284
 C         -5.9184196042       -0.8043294466        1.2387718412
 C         -7.1935366929       -0.2671452591        1.3130305121
 C         -7.8190550182        0.1907154872        0.1628207408
 C         -7.1794658436        0.1142641681       -1.0649168869
 C         -5.9034286074       -0.4216920245       -1.1460200836
 H         -5.3646220696       -0.4972682199       -2.0773609124
 H         -7.6673531426        0.4695993503       -1.9583350107
 H         -8.8112847047        0.6091419462        0.2233651960
 H         -7.6944486389       -0.2067383018        2.2657580763
 H         -5.3986953342       -1.1747465078        2.1065082388
 H         -2.1919128179       -1.2113058427        1.5941712753
 H         -3.8454459464        1.2419410962       -0.5062573596
 H         -2.6874057607        3.2529854123       -1.3517201260
 H         -0.3269252995        3.6478501599       -0.8155638760
 C          1.3276235261        2.0400742929        0.7431757379
 H          1.3959919653        2.0061507447        1.8439620322
 C          1.9205465168        3.3749915676        0.3180869185
 C          3.3882050096        3.5162808617        0.0491641038
 C          2.4061700266        3.6321657314       -1.0758140145
 H          2.2350240078        4.6085199976       -1.5053188285
 H          2.3350910397        2.8242454114       -1.7868641622
 H          3.9956007539        2.6244865929        0.1071526782
 H          3.8899791655        4.4086508362        0.3920286222
 H          1.4463161159        4.2075409548        0.8285499984
 O          3.0816964356        0.6025365901        2.4265737276
