  62
        -98.93991523
 C          1.1950094399        1.2582690274        0.0003058408
 C          1.7535095071        0.4563218873        1.0231127596
 C          2.5565908003       -0.6983397509        0.5897791963
 C          2.6793942559       -0.9568752144       -0.7233019495
 C          3.4409578489       -2.0738038617       -1.3932302067
 C          4.8283899295       -2.4195469204       -0.8346585399
 C          5.6162390186       -1.2309768807       -0.2647062793
 H          6.6126762485       -1.2190442270       -0.7102351743
 H          5.1283122081       -0.2927820369       -0.5340584326
 C          5.7833186460       -1.3004128097        1.2552278404
 H          6.6289888827       -0.6722501003        1.5454784989
 H          6.0299322736       -2.3273198330        1.5340832217
 C          4.5756138129       -0.8372973549        2.0693679003
 H          4.4635219642        0.2467675386        1.9816666492
 H          4.7762919343       -1.0533544632        3.1216361148
 C          3.2321075865       -1.4765569846        1.6821199832
 H          3.3582998938       -2.5229342193        1.4147173999
 H          2.5703151912       -1.4163346133        2.5506323461
 H          4.7319072985       -3.1823357960       -0.0632477701
 H          5.3932083762       -2.8714522178       -1.6518125434
 H          2.8209307459       -2.9746947950       -1.3791055535
 H          3.5363469883       -1.7644709849       -2.4367808905
 O          2.0599169020       -0.2015491003       -1.6718744466
 C          1.2990424120        0.9095739473       -1.3460399276
 O          0.7885706153        1.4814533642       -2.3253825060
 H         -1.0756863912        0.7706661243        1.7456706686
 C         -1.6627780395        1.2403831599        0.9665453711
 C         -1.0633266474        2.2025612668        0.1614546257
 C         -1.8193668745        2.7938920311       -0.8408913091
 C         -3.1397047814        2.4216383018       -1.0327219903
 C         -3.7319782163        1.4619968539       -0.2320502069
 C         -2.9832303693        0.8698385160        0.7769762596
 N         -3.5719827064       -0.1323933992        1.5835476618
 S         -3.9777931511       -1.5288490723        0.7489443560
 O         -5.1510949485       -1.2744713845       -0.0465498824
 O         -4.0981740843       -2.5638893711        1.7503683403
 C         -2.5749223095       -1.8385370773       -0.3081071188
 C         -2.6006702986       -1.4062281594       -1.6183353302
 C         -1.4783460817       -1.5969303840       -2.4075707887
 C         -0.3556347911       -2.2108332378       -1.8756193098
 C         -0.3419716460       -2.6306366388       -0.5543604937
 C         -1.4596185667       -2.4387533992        0.2406149334
 H         -1.4870993190       -2.7589232066        1.2702057032
 H          0.5361476711       -3.0976549481       -0.1372401021
 H          0.5155505005       -2.3523297284       -2.4955091687
 H         -1.4758349944       -1.2584284145       -3.4310526516
 H         -3.4942241205       -0.9376080764       -1.9967161742
 H         -2.9950145504       -0.3791370786        2.3763130519
 H         -4.7534316826        1.1501166824       -0.3787834187
 H         -3.7148919609        2.8848082628       -1.8199180699
 H         -1.3709744250        3.5338071876       -1.4825757180
 C          0.3975859820        2.4900074923        0.3987032255
 H          0.5470207151        2.5937250560        1.4828626300
 C          0.9037547840        3.7409462868       -0.2845398290
 C          0.5443008101        5.0828130984        0.2776737449
 C          1.9481263843        4.5723410923        0.3958095033
 H          2.7170775147        5.0295760043       -0.2086879829
 H          2.2936540618        4.2467427031        1.3663233398
 H         -0.0648131259        5.1027867105        1.1687845398
 H          0.3486937559        5.8940341887       -0.4066705943
 H          0.9736969834        3.6409992997       -1.3606643746
 O          1.5858139998        0.6918948400        2.2508621095
