  62
        -98.93961357
 C          1.3778078771        1.5643884801        0.1605742302
 C          1.6626620076        0.5034057225        1.0562225398
 C          2.9114625460       -0.2498938491        0.8395989708
 C          3.6907384207        0.0662648394       -0.2118067079
 C          5.0369915317       -0.4622734006       -0.6629591612
 C          5.6695471377       -1.6718968600        0.0190949855
 C          4.9852159975       -3.0022627170       -0.2952890507
 H          5.1989142011       -3.2628288621       -1.3348723779
 H          5.4237783202       -3.7758777996        0.3382757089
 C          3.4692506219       -3.0111497579       -0.1203195764
 H          3.0260487961       -2.2721156186       -0.7907346342
 H          3.1000376926       -3.9932502089       -0.4270000040
 C          2.9796448492       -2.7558877647        1.3033487115
 H          1.9037879643       -2.9500514512        1.3303384765
 H          3.4579466161       -3.4612075107        1.9859879243
 C          3.2106268862       -1.3328991872        1.8381923325
 H          4.2208780343       -1.2208869505        2.2265370849
 H          2.5227163795       -1.1730318743        2.6741048542
 H          6.6983456742       -1.7353183950       -0.3451908271
 H          5.7259799345       -1.5101806605        1.0915960795
 H          4.9416666309       -0.6624983262       -1.7350367217
 H          5.7236145745        0.3864126568       -0.5714594765
 O          3.3409202031        1.0520456851       -1.0869404300
 C          2.2062177184        1.8312637978       -0.9288043551
 O          2.0736366167        2.6962624681       -1.8145663793
 O          0.9105393983        0.2090207440        2.0251924494
 C          0.1436366502        2.4021155120        0.4525511784
 C         -1.0245843219        1.9887084687       -0.4098088385
 C         -1.0589756469        2.2489944158       -1.7761847106
 C         -2.1474754349        1.8580290311       -2.5338212525
 C         -3.2088342854        1.1840420179       -1.9541610992
 C         -3.1788363497        0.9093712241       -0.5930395839
 C         -2.0970587840        1.3267272404        0.1704867154
 H         -2.0935834323        1.1118663817        1.2286836650
 N         -4.2273670375        0.2069650434        0.0292669176
 S         -3.8213565055       -1.1093513912        0.9877091312
 O         -5.0395830152       -1.8855201794        1.0724849841
 O         -3.2720784387       -0.6583903509        2.2390244787
 C         -2.6100499692       -1.9754206037        0.0079956114
 C         -3.0789829581       -2.8068908534       -0.9915922170
 C         -2.1732216284       -3.4076026093       -1.8493355717
 C         -0.8179666749       -3.1488923931       -1.7085210315
 C         -0.3650868729       -2.3115178419       -0.7019204567
 C         -1.2637082188       -1.7210718872        0.1731477146
 H         -0.9244174200       -1.0783473902        0.9705437504
 H          0.6866427864       -2.1009187344       -0.5900381223
 H         -0.1092183394       -3.6018021887       -2.3837688537
 H         -2.5235723904       -4.0656637590       -2.6280328459
 H         -4.1409004387       -2.9778169655       -1.0661549538
 H         -4.9823542599       -0.0377596970       -0.5961958380
 H         -4.0533451500        0.8723847632       -2.5497926871
 H         -2.1655207145        2.0710432301       -3.5918562997
 H         -0.2188263896        2.7433963303       -2.2382402099
 H         -0.1200445259        2.1667071078        1.4931414380
 C          0.4005276725        3.8932244990        0.3531181257
 C         -0.5335931558        4.8350598387        1.0492856213
 C          0.8590187494        4.6398966616        1.5678702856
 H          1.5750705273        5.4381202864        1.4421255375
 H          0.9885602907        4.0784065948        2.4820006610
 H         -0.7768059551        5.7695536677        0.5676428750
 H         -1.3488176404        4.4049413569        1.6119934310
 H          0.8091233453        4.2008931486       -0.6001758526
