  62
        -98.93964753
 C         -2.6532971393       -0.6472425848        0.6112263822
 C         -2.9543960982       -0.0488851040       -0.6364627194
 C         -3.3528252475        1.3654832037       -0.5863042519
 C         -3.4191027286        1.9914733050        0.6028859167
 C         -3.7469900173        3.4439477599        0.7904695833
 C         -2.4745666616        4.3031415982        0.7860841848
 C         -1.5366806152        4.0127564041       -0.3859859879
 H         -0.6892017727        4.6963426500       -0.3015004778
 H         -1.1426565564        2.9984311900       -0.2867183196
 C         -2.1832520562        4.1687334146       -1.7695265740
 H         -3.0960001312        4.7599448400       -1.6874061195
 H         -1.4972533522        4.7192628850       -2.4165186085
 C         -2.4975612344        2.8483755229       -2.4757047720
 H         -1.6087069505        2.2117968002       -2.4791460671
 H         -2.7440833804        3.0702685061       -3.5174124202
 C         -3.6640775969        2.0410891573       -1.8919719733
 H         -4.5442573763        2.6800951058       -1.7968857042
 H         -3.8960326889        1.2371360081       -2.5966054546
 H         -1.9297016296        4.1187798865        1.7148919232
 H         -2.7681293820        5.3541486766        0.7674087549
 H         -4.2516613143        3.5620208134        1.7507907734
 H         -4.4180066182        3.7650449176       -0.0036155186
 O         -3.1351155350        1.3781777164        1.7810962317
 C         -2.7282146765        0.0542479642        1.8135009108
 O         -2.4595686782       -0.3744557407        2.9551103498
 O         -2.8905935343       -0.6593286544       -1.7346174072
 C         -2.1960890365       -2.0937849331        0.6626821545
 C         -0.9339272852       -2.2595578994       -0.1506373517
 C         -0.7451761829       -3.2788565078       -1.0734084767
 C          0.4402518131       -3.3685034782       -1.7834312278
 C          1.4576195991       -2.4527737781       -1.5916032329
 C          1.2861157856       -1.4370621874       -0.6589487706
 C          0.1013480352       -1.3555458734        0.0568881110
 H         -0.0330919051       -0.5662784890        0.7877913986
 N          2.3046650296       -0.4806970185       -0.4609745115
 S          3.8710301446       -1.0660924260       -0.2099492557
 O          4.3935350824       -1.5312007673       -1.4694452864
 O          3.8770017011       -2.0286649326        0.8702616752
 C          4.7143705701        0.4248964606        0.2774851261
 C          5.0504334013        1.3405510722       -0.7016687957
 C          5.6906319386        2.5120182581       -0.3304823184
 C          5.9829846768        2.7465330658        1.0051768222
 C          5.6404435637        1.8174146105        1.9759013653
 C          4.9977264112        0.6443625931        1.6117738196
 H          4.7190070792       -0.1089438293        2.3314049895
 H          5.8711894741        2.0009236067        3.0129832557
 H          6.4833944751        3.6581181649        1.2914862689
 H          5.9602934688        3.2364537463       -1.0819606963
 H          4.8121965467        1.1115107407       -1.7271321884
 H          2.0640804899        0.1633308582        0.2813733517
 H          2.3826625371       -2.5160642420       -2.1407759955
 H          0.5722539709       -4.1626401890       -2.5028912509
 H         -1.5266806753       -4.0010828050       -1.2427107010
 H         -1.9492400160       -2.2989744725        1.7151138968
 C         -3.3196538641       -3.0160118885        0.2386683777
 C         -3.3945268467       -4.4118397544        0.7781025265
 C         -4.3735927931       -3.3760458471        1.2406208446
 H         -5.3983506938       -3.4475832394        0.9085160758
 H         -4.2652561438       -2.9762463843        2.2386566025
 H         -3.7506811619       -5.1976441465        0.1291337828
 H         -2.6238946859       -4.7239484839        1.4668915214
 H         -3.6384998251       -2.8412780482       -0.7823100528
