  62
        -98.93370295
 C          2.0923112104        0.4990641351        0.4574044434
 C          3.1467371390        0.6776203123       -0.4675839316
 C          4.0964080547       -0.4452474820       -0.6241594033
 C          3.8948401185       -1.5747404944        0.0778076671
 C          4.7414454169       -2.8192543654        0.1068577522
 C          6.0218223506       -2.6438012957        0.9408238179
 C          6.7544925820       -1.3217364081        0.7262741554
 H          7.5664962854       -1.2702783148        1.4564327858
 H          6.0733908506       -0.4963666509        0.9414319599
 C          7.3615841123       -1.1318285774       -0.6615898477
 H          8.0805848122       -1.9322797463       -0.8499492958
 H          7.9115576314       -0.1874175851       -0.6486681943
 C          6.3690565895       -1.0882624260       -1.8248043921
 H          6.0152236858       -2.0847683783       -2.0744623802
 H          6.9119391024       -0.7230535188       -2.7015652594
 C          5.1889781990       -0.1429073861       -1.6221462168
 H          4.6798302595       -0.0104173287       -2.5843760204
 H          5.5685289799        0.8506787920       -1.3586181754
 H          6.6934198277       -3.4753323959        0.7210349693
 H          5.7456938686       -2.7025674486        1.9964927323
 H          4.9762722051       -3.1340207473       -0.9056185983
 H          4.1320612081       -3.6013494338        0.5652037309
 O          2.8476975905       -1.7137449688        0.9421068022
 C          1.9407109217       -0.6987829930        1.1612423945
 O          1.0588198749       -0.9730056363        2.0023132376
 O          3.3266695563        1.7254125846       -1.1430526007
 C          1.0512012266        1.5681892374        0.7515144331
 C         -0.0040560262        1.6038619358       -0.3286936484
 C          0.2692200708        2.0870425341       -1.6043248590
 C         -0.7194768006        2.1026534495       -2.5706646875
 C         -1.9923110802        1.6403300432       -2.2876697293
 C         -2.2767178534        1.1576616475       -1.0153107047
 C         -1.2828022633        1.1433138281       -0.0467984225
 H         -1.5081552795        0.7472535939        0.9325248628
 N         -3.5760043983        0.7255372300       -0.6948709208
 S         -3.7816528540       -0.5690487506        0.3685358745
 O         -3.5810542178       -0.1015924695        1.7166121068
 O         -2.9808455106       -1.6954084678       -0.0583818818
 C         -5.5143162494       -0.9025140794        0.1070701461
 C         -6.4421103739       -0.0956099514        0.7385535740
 C         -7.7906506057       -0.3249322146        0.5173730952
 C         -8.1874164299       -1.3514635328       -0.3269459562
 C         -7.2452099075       -2.1543230326       -0.9519202273
 C         -5.8944342300       -1.9291233360       -0.7362450471
 H         -5.1265635330       -2.5322292649       -1.1937850548
 H         -7.5565330763       -2.9536197010       -1.6049496028
 H         -9.2376585860       -1.5286968312       -0.4966866571
 H         -8.5259091333        0.2955926024        1.0036858990
 H         -6.0859427471        0.6829525343        1.3926350808
 H         -4.1566415424        0.6102250546       -1.5150854664
 H         -2.7620657290        1.6536966583       -3.0444807736
 H         -0.4948805683        2.4750535034       -3.5588167111
 H          1.2672753798        2.4244725212       -1.8354411220
 H          0.5581056619        1.2465350514        1.6796718380
 C          1.6544511640        2.9403818305        0.9818993377
 C          0.8496712627        3.9670869051        1.7178005396
 C          2.0463895108        3.3433641184        2.3698520237
 H          2.9353638897        3.9419440793        2.5005856623
 H          1.8806312595        2.6285262027        3.1633815915
 H          0.9147674671        4.9966015040        1.4012467612
 H         -0.1286377801        3.6742726866        2.0694905541
 H          2.2851723893        3.2773117333        0.1705363254
