  62
        -98.94000081
 C         -2.4264911416       -1.0170802453        0.0141041327
 C         -3.6878189541       -0.9121664370        0.6567369318
 C         -4.6650732396       -0.0091006233        0.0359448028
 C         -4.3201949711        0.6657446648       -1.0753045406
 C         -5.1916942796        1.6644857982       -1.7787798178
 C         -4.9474292825        3.0836609406       -1.2468949661
 C         -4.9763700942        3.1852113187        0.2781891632
 H         -4.1312125251        2.6277654159        0.6887649049
 H         -4.8237244564        4.2352055308        0.5369938195
 C         -6.2758167595        2.6834732082        0.9234477228
 H         -6.5891510741        3.4019790863        1.6838165935
 H         -7.0678876914        2.6383731347        0.1750765333
 C         -6.1570288675        1.3252158616        1.6174316486
 H         -7.0571253699        1.1705205085        2.2183957653
 H         -5.3052560450        1.3367393779        2.3022155462
 C         -6.0125535586        0.1116608123        0.6903291259
 H         -6.1323467287       -0.7881750482        1.3008872263
 H         -6.8055320388        0.1252840895       -0.0602722035
 H         -5.7034101484        3.7463359372       -1.6720245380
 H         -3.9671244416        3.4189217122       -1.5932844249
 H         -6.2354373305        1.3880863747       -1.6426059417
 H         -4.9540228772        1.6392065844       -2.8436083766
 O         -3.1025925624        0.5488218864       -1.6591278475
 C         -2.1174029851       -0.2779661728       -1.1295614423
 O         -1.0524797770       -0.2539941602       -1.7722392930
 O         -3.9815010335       -1.5440310291        1.7066813334
 C         -1.3916400854       -1.9206078039        0.6629624920
 C         -0.0952044055       -1.1726061790        0.8378304757
 C          0.0017490212       -0.2134710312        1.8419173098
 C          1.1638881015        0.5138630350        2.0140376239
 C          2.2509295756        0.3074809875        1.1827351491
 C          2.1643778664       -0.6455368161        0.1772993086
 C          1.0006384270       -1.3877590572        0.0181115429
 H          0.9378189260       -2.1130636567       -0.7782002233
 N          3.2477735283       -0.8379632504       -0.6910625460
 S          4.8075531586       -0.8985335482       -0.0948194612
 O          5.5653613409       -1.6227454162       -1.0920179378
 O          4.8431186464       -1.4324873751        1.2473511660
 C          5.3354177426        0.8022507031       -0.0887632123
 C          5.1859122199        1.5347651587       -1.2499346806
 C          5.6021796255        2.8562993209       -1.2656832152
 C          6.1611809821        3.4190991735       -0.1279031663
 C          6.3079277241        2.6694210209        1.0289831871
 C          5.8923398012        1.3470788917        1.0515533166
 H          5.9807789815        0.7284564769        1.9305098603
 H          6.7425011791        3.1089268358        1.9124392292
 H          6.4835003200        4.4483152409       -0.1433903693
 H          5.4881718615        3.4424481456       -2.1634217458
 H          4.7469185495        1.0624114359       -2.1130432152
 H          3.0858896586       -1.5178773311       -1.4182124673
 H          3.1582182905        0.8759457908        1.3060619411
 H          1.2243327358        1.2533912117        2.7981385518
 H         -0.8515248184       -0.0418562437        2.4840368576
 H         -1.8027047578       -2.1242544089        1.6654241115
 C         -1.2154651579       -3.2745345002       -0.0078779610
 C         -2.3937846777       -3.9938956595       -0.5913813343
 C         -1.3105373562       -3.4795305585       -1.4889477908
 H         -0.6437019547       -4.1965402159       -1.9464411768
 H         -1.5154171003       -2.6202578513       -2.1075035978
 H         -2.4764695644       -5.0593589616       -0.4383449348
 H         -3.3418348373       -3.4759815757       -0.5884947292
 H         -0.4891044339       -3.8875618388        0.5185379044
