  62
        -98.94411652
 C          2.2197194418        1.3006197919       -0.1400239437
 C          2.5964090086        0.2116679356       -0.9628347207
 C          3.9617394896       -0.2916871711       -0.7635690458
 C          4.7716452948        0.2993247027        0.1332551952
 C          6.1940464182       -0.0884808742        0.4334890453
 C          6.3259514727       -1.2376593418        1.4423691722
 C          5.9393804289       -2.6183800228        0.9105385443
 H          6.4752738945       -2.8117412207       -0.0192640506
 H          6.2834480442       -3.3514452150        1.6428791586
 C          4.4328130442       -2.8135824568        0.6885920459
 H          4.1246272421       -3.7760289501        1.1032973773
 H          3.8801569989       -2.0421927209        1.2300930274
 C          3.9995498682       -2.7938179385       -0.7774541163
 H          4.4383970264       -3.6463320159       -1.3008451145
 H          2.9119232321       -2.8993228704       -0.8141387721
 C          4.3768134435       -1.5109556342       -1.5298704202
 H          5.4480897738       -1.4919266795       -1.7288978754
 H          3.8422502279       -1.5032911972       -2.4829405568
 H          5.7196372801       -1.0030054468        2.3202857027
 H          7.3705454040       -1.2741284581        1.7600310941
 H          6.7054129431       -0.3543560728       -0.4920052941
 H          6.6753373386        0.7964341194        0.8554032703
 O          4.3799223851        1.3637492888        0.8830577930
 C          3.0932912276        1.8678945661        0.7888407092
 O          2.8528290644        2.8117107475        1.5685359717
 H         -1.0855690901        0.5468040007       -1.7288031182
 C         -1.0562923831        0.2184948742       -0.7022305106
 C         -0.1620916068        0.7949994196        0.1844753169
 C         -0.1438977683        0.3420405537        1.5015636949
 C         -0.9869348905       -0.6719855286        1.9131444280
 C         -1.8660077326       -1.2596827611        1.0195594085
 C         -1.8950115665       -0.8122071213       -0.2939446293
 N         -2.7825155369       -1.4030589089       -1.2061931690
 S         -4.3491502583       -1.7172575599       -0.7197455984
 O         -4.3866749082       -2.9234370410        0.0693077263
 O         -5.1260776707       -1.7359459506       -1.9391012756
 C         -4.8086696465       -0.3201126268        0.2908134792
 C         -5.1220697759       -0.5034775585        1.6219020231
 C         -5.4481535348        0.6014570159        2.3922736940
 C         -5.4514122948        1.8644059621        1.8214612369
 C         -5.1367397119        2.0322202965        0.4813783328
 C         -4.8110594219        0.9312437237       -0.2934145070
 H         -4.5687541224        1.0269462815       -1.3395127264
 H         -5.1416804339        3.0156822600        0.0394267076
 H         -5.7017893640        2.7238546528        2.4231591101
 H         -5.6954881300        0.4738393852        3.4338468021
 H         -5.1069512434       -1.5025870626        2.0260711466
 H         -2.7443817221       -1.0139575743       -2.1360508068
 H         -2.5151873745       -2.0671697737        1.3166615974
 H         -0.9573280350       -1.0143719328        2.9364614291
 H          0.5519886147        0.7939015318        2.1956727966
 C          0.8140724567        1.8735041135       -0.2178605082
 H          0.7709454658        2.6709463361        0.5365840149
 C          0.5479703160        2.4764824384       -1.5804951151
 C         -0.5605226600        3.4709838539       -1.7475566295
 C          0.8674267789        3.9216495763       -1.8104335592
 H          1.2767503198        4.2124431868       -2.7663664388
 H          1.2669716837        4.4817534119       -0.9775576114
 H         -1.1334114553        3.4586186326       -2.6624643925
 H         -1.1333406948        3.7288835935       -0.8698821580
 H          0.7487434394        1.7898431678       -2.3942839377
 O          1.8424483543       -0.3136063732       -1.8227306213
