  62
        -98.93713884
 C         -1.7664400886       -0.8975109553        0.2437520959
 C         -3.1180917787       -1.2235969280        0.5132514937
 C         -4.0788136762       -0.1070013539        0.5595971632
 C         -3.6349011818        1.1507702323        0.3800720456
 C         -4.3601080076        2.4800679351        0.4084925832
 C         -5.8848246845        2.5381641809        0.3744415600
 C         -6.5114254177        2.0899108845       -0.9458069317
 H         -7.5960083606        2.0668037132       -0.8198998663
 H         -6.2814004543        2.8366746172       -1.7100417971
 C         -6.0437129805        0.7354274994       -1.4725895836
 H         -6.5537767322        0.5515297995       -2.4221713368
 H         -4.9735098907        0.7746320249       -1.6865883825
 C         -6.3245305911       -0.4547197248       -0.5573540299
 H         -6.0824499186       -1.3638020066       -1.1150357837
 H         -7.3879931797       -0.4874819540       -0.3127739353
 C         -5.5187806542       -0.4865084102        0.7525400050
 H         -5.5166935448       -1.5160966782        1.1225922297
 H         -5.9820895340        0.1332795145        1.5164152418
 H         -6.1600580289        3.5848442257        0.5303622288
 H         -6.3017972472        1.9770258229        1.2055424144
 H         -4.0145895358        2.9859305187        1.3167755722
 H         -3.9615819816        3.0550198531       -0.4335524236
 O         -2.3131272691        1.4207840769        0.1744847062
 C         -1.3515997896        0.4242226957        0.0946953949
 O         -0.2004123521        0.8538815394       -0.0998825483
 O         -3.5088631548       -2.4035236112        0.7200328421
 C         -0.7649352108       -2.0344935707        0.1688186151
 C          0.4768006530       -1.7036803689        0.9585159900
 C          0.3514422841       -1.4554476314        2.3238473473
 C          1.4581827085       -1.1558600254        3.0928290492
 C          2.7164199582       -1.1021418289        2.5181455540
 C          2.8550279063       -1.3534602072        1.1589427034
 C          1.7387985605       -1.6550550372        0.3881291794
 H          1.8740609885       -1.8218898542       -0.6668793938
 N          4.1290849474       -1.3538811769        0.5644703966
 S          4.4715437073       -0.5054534844       -0.8348272410
 O          3.5857571280       -0.9148145877       -1.8929473247
 O          5.8822016366       -0.7393114628       -1.0583011045
 C          4.2253005196        1.2117642740       -0.4181556670
 C          5.3375048465        2.0059456402       -0.2116875366
 C          5.1604205244        3.3301336253        0.1535036463
 C          3.8783860071        3.8343616517        0.3149295222
 C          2.7745050989        3.0218226981        0.1097222808
 C          2.9423749433        1.6960755323       -0.2611731369
 H          2.0878483920        1.0577765228       -0.4195873104
 H          1.7718775737        3.3987458913        0.2356638695
 H          3.7378592283        4.8648275263        0.6016045311
 H          6.0187665797        3.9629144951        0.3127053908
 H          6.3140999115        1.5707891678       -0.3501170921
 H          4.8856320775       -1.2288178636        1.2222764724
 H          3.5839404587       -0.8708020556        3.1175877273
 H          1.3431979577       -0.9611997064        4.1485216985
 H         -0.6322916256       -1.4956914709        2.7722165073
 H         -1.2688050648       -2.8765890864        0.6734468116
 C         -0.4634826658       -2.4978925250       -1.2486355016
 C         -1.4702726685       -2.3520278475       -2.3491131295
 C         -0.2149264562       -1.5351308316       -2.3691884781
 H          0.5543280555       -1.7735705734       -3.0896164012
 H         -0.2815818228       -0.4815989212       -2.1470095241
 H         -1.5739227674       -3.1585343331       -3.0593668085
 H         -2.3998039049       -1.8527474497       -2.1164407244
 H          0.1239739656       -3.4114832502       -1.2592897136
