  62
        -98.94514854
 C         -1.5121783655       -0.5974237560       -0.4805881254
 C         -2.7399412404       -1.1314204591       -0.0084060622
 C         -3.6703663573       -0.1822413339        0.6096144637
 C         -3.3158059179        1.1091657656        0.7347737803
 C         -4.1355416779        2.1955703000        1.3767472412
 C         -5.1759547669        2.8286981015        0.4425936797
 C         -6.3847410253        1.9479699710        0.1236052675
 H         -6.8206666697        1.5815490318        1.0535426251
 H         -7.1289306175        2.5872515485       -0.3554706872
 C         -6.0782926054        0.7651362850       -0.8055939632
 H         -6.8426794705        0.7058633802       -1.5835782080
 H         -5.1228811686        0.9346569670       -1.3073556864
 C         -6.0355382807       -0.5944387970       -0.1079739912
 H         -7.0246520859       -0.8348000100        0.2880717611
 H         -5.7766256144       -1.3527328544       -0.8511466498
 C         -5.0164937128       -0.6858010596        1.0355527268
 H         -5.3729291240       -0.1304181030        1.9030056329
 H         -4.9049984062       -1.7365299110        1.3141372495
 H         -4.6797433391        3.1180606114       -0.4866073649
 H         -5.5345754920        3.7406096540        0.9256685561
 H         -4.6321633866        1.8023728561        2.2644595274
 H         -3.4322689015        2.9713409908        1.6879903846
 O         -2.1236738122        1.5818225473        0.2893758369
 C         -1.1998222680        0.7552392983       -0.3389727044
 O         -0.1809100295        1.3597248086       -0.7221722728
 H          1.6487981990       -0.2686568999       -0.1408061041
 C          1.5167380967       -1.2307650001        0.3236136334
 C          0.4455798605       -2.0320572452       -0.0479168226
 C          0.2656710843       -3.2532168710        0.5931253811
 C          1.1380538038       -3.6616640214        1.5852847206
 C          2.2009161425       -2.8592664700        1.9569020233
 C          2.3880185040       -1.6333165959        1.3259395813
 N          3.4762326991       -0.8233820297        1.6719589766
 S          3.3972174887        0.8489342334        1.6079188908
 O          4.4673506617        1.2749220095        2.4885783778
 O          2.0796561982        1.3370659818        1.9376177398
 C          3.8662594471        1.2270711339       -0.0665694010
 C          5.1378956054        0.8552130728       -0.4596585100
 C          5.5462152311        1.1260582773       -1.7546953630
 C          4.6798767929        1.7629758257       -2.6311398834
 C          3.4096642783        2.1329712427       -2.2188704409
 C          2.9934704116        1.8661782281       -0.9225822730
 H          2.0018954542        2.1218006243       -0.5815862054
 H          2.7309804792        2.6246026246       -2.8979154016
 H          4.9950944007        1.9725581604       -3.6413022265
 H          6.5339952723        0.8397368396       -2.0780379416
 H          5.7805685203        0.3702439641        0.2560372996
 H          4.0154995585       -1.1463357255        2.4615608632
 H          2.8814022149       -3.1735379191        2.7337851920
 H          0.9869724146       -4.6106735641        2.0772296825
 H         -0.5784489051       -3.8696633858        0.3201235597
 C         -0.5376170590       -1.5847111582       -1.1044568249
 H         -1.1502716436       -2.4567381279       -1.3722629230
 C          0.1502763781       -1.0805621181       -2.3556560642
 C          0.8172640951       -2.0723788633       -3.2596791457
 C         -0.4445727303       -1.3913641890       -3.6951432254
 H         -0.3878127123       -0.6408777658       -4.4691128430
 H         -1.3561155502       -1.9709602684       -3.7166416398
 H          1.7445537835       -1.7917716052       -3.7345505012
 H          0.7604915287       -3.1146506759       -2.9841709185
 H          0.6191766449       -0.1131716017       -2.2380245080
 O         -3.0457559328       -2.3501892832       -0.1046529991
