  62
        -98.93830806
 C          1.8005611299        0.0820907496        0.3017410195
 C          2.9291728002        0.5503156799        1.0106656689
 C          4.2494041900        0.0690166893        0.5597654091
 C          4.3044601896       -0.7850906416       -0.4793546902
 C          5.5249697194       -1.3774097624       -1.1325661199
 C          6.2574624394       -0.3749479433       -2.0390321609
 C          6.4244858798        1.0226386471       -1.4483569721
 H          5.4407971700        1.4277621475       -1.2041805122
 H          6.8543499598        1.6614308464       -2.2244499127
 C          7.3285215001        1.1067083380       -0.2208303223
 H          7.4277519203        2.1643202682        0.0365889068
 H          8.3217602899        0.7343455875       -0.4815325021
 C          6.8405320101        0.3598474391        1.0222634284
 H          7.4422206103        0.7073848497        1.8672102180
 H          7.0209131299       -0.7081687810        0.9345187893
 C          5.3833526402        0.6199034597        1.3908910184
 H          5.2158347205        1.7013697598        1.4492316376
 H          5.2099334103        0.2477264606        2.4079116888
 H          5.6857568093       -0.2784113940       -2.9653477709
 H          7.2365409193       -0.7873843837       -2.2886686207
 H          5.1776636391       -2.2115311728       -1.7463283292
 H          6.1947590394       -1.7786501919       -0.3777901197
 O          3.1853212394       -1.2134893319       -1.1324882997
 C          1.9158059796       -0.8016696114       -0.7699528598
 O          0.9981110694       -1.2846792817       -1.4609400092
 O          2.8444636105        1.3421913307        1.9885652583
 C          0.4208714501        0.5530088002        0.7213890393
 C         -0.4649577001       -0.6242499194        1.0427481005
 C          0.0300502198       -1.6395365188        1.8576319112
 C         -0.7460675703       -2.7389557784        2.1663351322
 C         -2.0353172304       -2.8473926885        1.6755800825
 C         -2.5474443204       -1.8309665291        0.8783729018
 C         -1.7664682502       -0.7231379195        0.5755845708
 H         -2.1768367701        0.0457689601       -0.0567290098
 N         -3.8691311705       -1.8930013392        0.4244696721
 S         -4.4189605905       -1.0779951002       -0.9212879685
 O         -5.7156921807       -1.6695732801       -1.1793609278
 O         -3.4832741407       -1.1139575913       -2.0201977786
 C         -4.6545415601        0.5975378304       -0.3639995699
 C         -4.4689876900        1.6265686296       -1.2657790107
 C         -4.6953903797        2.9309197400       -0.8542402718
 C         -5.1000346994        3.1828321611        0.4473665881
 C         -5.2828594695        2.1383436019        1.3405127590
 C         -5.0640171798        0.8318324115        0.9337115600
 H         -5.1964753699       -0.0011745379        1.6034080507
 H         -5.5957473292        2.3377467728        2.3527126289
 H         -5.2716161891        4.1986812614        0.7663420873
 H         -4.5537876096        3.7437500294       -1.5489535425
 H         -4.1395797302        1.3862669287       -2.2645495706
 H         -4.3477196606       -2.7675840089        0.5762885529
 H         -2.6399633506       -3.7109498582        1.9066778434
 H         -0.3434420204       -3.5233432779        2.7895787928
 H          1.0404295599       -1.5598428087        2.2353340910
 H          0.5793954504        1.1274581709        1.6467691088
 C         -0.1598168799        1.4771895794       -0.3284817013
 C         -1.0923639196        2.5807647200        0.0701783879
 C          0.3029893504        2.9017144793       -0.3714641326
 H          0.4479185504        3.3675708385       -1.3346369130
 H          1.0201684506        3.2094851398        0.3753906670
 H         -1.9103455196        2.8267167396       -0.5897712722
 H         -1.3281246894        2.6802999109        1.1187466379
 H         -0.3311485101        0.9756609487       -1.2756123809
