  62
        -98.94255695
 C         -2.7137857205       -1.2126250894        0.1551786498
 C         -2.5742454404       -0.3069280092       -0.9244749801
 C         -3.5415999002        0.8001320809       -0.9589438399
 C         -4.4957731102        0.8759103509       -0.0139637398
 C         -5.4954072401        1.9882867910        0.1087031904
 C         -4.9686242499        3.1049233508        1.0216031205
 C         -3.5488279499        3.5620000007        0.6855912606
 H         -3.2966702598        4.3700103905        1.3757705307
 H         -2.8531430700        2.7429370305        0.8832465904
 C         -3.3624352698        4.0472556109       -0.7588537793
 H         -2.7812730097        4.9716315308       -0.7449315492
 H         -4.3325277298        4.2812731411       -1.1989010193
 C         -2.6177330400        3.0667599809       -1.6668405595
 H         -2.3520671499        3.5915294310       -2.5883799694
 H         -1.6864524800        2.7560772607       -1.1860490696
 C         -3.3961322801        1.8065383111       -2.0653516897
 H         -4.3727595301        2.0863044813       -2.4651098496
 H         -2.8317227102        1.3032396411       -2.8558082098
 H         -4.9754678400        2.7412561206        2.0517657305
 H         -5.6512021898        3.9542304009        0.9567591807
 H         -5.7139067400        2.3855404812       -0.8805215896
 H         -6.4126176701        1.5821235610        0.5382860503
 O         -4.6238457403       -0.0371680193        0.9827155300
 C         -3.7251018404       -1.0821578894        1.1091278598
 O         -3.9312824005       -1.8207088695        2.0931817597
 H          0.4928035094       -2.0024995595       -1.2540667604
 C          0.6309393295       -1.6114618897       -0.2588653903
 C         -0.3837689805       -1.7296842597        0.6760956297
 C         -0.1827894504       -1.2025637100        1.9497104398
 C          1.0014005796       -0.5683628002        2.2712759899
 C          2.0054454196       -0.4317271301        1.3273021499
 C          1.8155298496       -0.9537316199        0.0554866798
 N          2.8006997096       -0.7864888898       -0.9241292402
 S          4.4265056196       -0.8134019701       -0.5540738002
 O          5.0909568595       -1.0644985300       -1.8141194903
 O          4.7175344795       -1.7397225703        0.5158262996
 C          4.7790048898        0.8523707698       -0.0308619400
 C          5.5306501498        1.0686707495        1.1074365301
 C          5.8079468100        2.3715977194        1.4910892303
 C          5.3320141001        3.4300897196        0.7328463805
 C          4.5806119201        3.1961702899       -0.4092083996
 C          4.3015503899        1.8960372600       -0.7990594798
 H          3.7193710699        1.6759754302       -1.6785638598
 H          4.2099735301        4.0214833800       -0.9957667694
 H          5.5465404202        4.4433785995        1.0338527006
 H          6.3916670800        2.5554312692        2.3787602603
 H          5.8732030897        0.2156277694        1.6713797399
 H          2.5898506295       -1.2036706797       -1.8173675903
 H          2.9289474697        0.0671702397        1.5712412699
 H          1.1445190397       -0.1678991603        3.2635293399
 H         -0.9757810304       -1.2909007900        2.6800273098
 C         -1.7219447006       -2.3486584595        0.3517571496
 H         -2.0657821407       -2.9013928796        1.2363139395
 C         -1.7019027307       -3.2910348793       -0.8325061106
 C         -1.0742794609       -4.6436402894       -0.6845806608
 C         -2.5626637409       -4.5164306892       -0.8045959107
 H         -3.0356083609       -4.8343993390       -1.7217011308
 H         -3.1640825409       -4.6845600093        0.0769262592
 H         -0.5244036809       -5.0534503693       -1.5183037509
 H         -0.6625075909       -4.8987534896        0.2803707792
 H         -1.5984925407       -2.7831205492       -1.7833219305
 O         -1.6925108804       -0.4062718692       -1.8171639301
