  62
        -98.94908218
 C         -2.0138627710       -0.7141217465       -0.1888560500
 C         -2.6001492891        0.2662291751        0.6463715895
 C         -2.5888253162        1.6390526248        0.1281392489
 C         -2.0328564354        1.8954678031       -1.0697428311
 C         -1.9459933026        3.2397705826       -1.7391732617
 C         -0.7666006709        4.0966185304       -1.2596895119
 C         -0.9316859799        4.7086987314        0.1318452878
 H         -0.1564393784        5.4698680899        0.2405718176
 H         -1.8962397789        5.2141114634        0.1956397274
 C         -0.7965770322        3.7087887216        1.2883697083
 H         -0.2812994239        2.8069759904        0.9485734888
 H         -0.1676350114        4.1401149407        2.0713430882
 C         -2.1163406431        3.3076777146        1.9479323382
 H         -1.8938636648        2.5547140445        2.7088215486
 H         -2.5541754214        4.1744686958        2.4495017677
 C         -3.1617017841        2.7238187864        0.9892042183
 H         -3.9625250951        2.2820761383        1.5881961483
 H         -3.5845971924        3.5152565170        0.3700027678
 H          0.1422891779        3.4899094786       -1.2806794115
 H         -0.6418943391        4.9105530699       -1.9776786022
 H         -1.8217512928        3.0474034519       -2.8069211816
 H         -2.8780564815        3.7857602146       -1.5903650121
 O         -1.4849088173        0.9239538617       -1.8461461106
 C         -1.4500796401       -0.3995013782       -1.4242242300
 O         -0.9036486115       -1.1771800997       -2.2285714396
 O         -3.1159145398        0.0038779966        1.7668484895
 C         -1.9490480940       -2.1539308564        0.2868526807
 C         -0.5073422149       -2.5931654794        0.3745537811
 C         -0.0300900473       -3.7769505006       -0.1723997582
 C          1.3098346921       -4.1071623733       -0.0642286378
 C          2.1973657337       -3.2678267048        0.5828039719
 C          1.7282897760       -2.0862495136        1.1471094513
 C          0.3838713567       -1.7657127109        1.0483424609
 H          0.0273497785       -0.8475563200        1.4931380105
 N          2.6013872776       -1.2254585751        1.8387456111
 S          2.6422277410        0.4067764547        1.4800013904
 O          3.7723570719        0.9120969627        2.2286494304
 O          1.3658707522        1.0104011774        1.7581146099
 C          2.9971455115        0.4833684432       -0.2634949096
 C          4.3106236817        0.5205395903       -0.6898442194
 C          4.5711802119        0.5188111291       -2.0505457093
 C          3.5215017120        0.4671590709       -2.9563391395
 C          2.2088082918        0.4274292238       -2.5122088997
 C          1.9441515516        0.4374179549       -1.1526208598
 H          0.9351052114        0.4059003772       -0.7736268299
 H          1.3815720718        0.3732485352       -3.2024468198
 H          3.7252753021        0.4585529900       -4.0154592394
 H          5.5899972020        0.5532530169       -2.4016943491
 H          5.0947620316        0.5651607290        0.0486190908
 H          3.5445016969       -1.5787877870        1.9196542314
 H          3.2434112931       -3.5232724069        0.6585341923
 H          1.6690965902       -5.0274964442       -0.4986872974
 H         -0.7052613185       -4.4391248794       -0.6885270981
 H         -2.3662728442       -2.1447587251        1.3051687006
 C         -2.8087280157       -3.0449495951       -0.5847244191
 C         -3.4152376583       -4.2940675936       -0.0206452786
 C         -4.2822292959       -3.1095443519       -0.3209865193
 H         -4.9552581258       -3.1604024009       -1.1636840494
 H         -4.6632096248       -2.5282743008        0.5062063904
 H         -3.4973631200       -5.1613785337       -0.6581406783
 H         -3.2138327490       -4.5240531335        1.0147215415
 H         -2.4859521855       -3.0515368862       -1.6196676390
