  62
        -98.94177238
 C         -2.7669334097       -0.4782755005       -0.3176365278
 C         -2.0334862720        0.4022238594       -1.1501163515
 C         -2.2007428633        1.8371759385       -0.8763642168
 C         -3.0456211068        2.2374832303        0.0895372932
 C         -3.2758027603        3.6627089822        0.4984940288
 C         -2.3393317187        4.0745423865        1.6426460235
 C         -0.8701330768        3.7247967523        1.4025541872
 H         -0.3026297360        4.1040851607        2.2556100232
 H         -0.7470621482        2.6384033851        1.4026493840
 C         -0.2812013731        4.2947674944        0.1049163918
 H          0.7059646910        4.7064946709        0.3247185629
 H         -0.9039609046        5.1136508304       -0.2584451637
 C         -0.0941310725        3.2611549577       -1.0075302354
 H          0.4249891327        2.3882599265       -0.6005516270
 H          0.5466236099        3.7022360526       -1.7763492149
 C         -1.3818908018        2.7919151628       -1.6982557020
 H         -1.9773258228        3.6579751287       -1.9945314441
 H         -1.0981651648        2.2439883667       -2.6014253508
 H         -2.4364765579        5.1510188015        1.7960784268
 H         -2.6642300041        3.5701704063        2.5557062706
 H         -3.1221260531        4.3110481954       -0.3618717162
 H         -4.3092979658        3.7594272466        0.8357258210
 O         -3.7702606256        1.3675049545        0.8383232574
 C         -3.6223094540        0.0017585563        0.6797661295
 O         -4.3112050431       -0.6791758125        1.4662637005
 O         -1.2719258148        0.0370426749       -2.0865262922
 C         -2.6357104901       -1.9951577482       -0.3833084212
 C         -1.3650859361       -2.3852042010        0.3335948351
 C         -1.3997924528       -3.0235008478        1.5678978181
 C         -0.2306121462       -3.2761994645        2.2654139587
 C          0.9948058633       -2.8821526703        1.7568234224
 C          1.0361610620       -2.2467715910        0.5238572066
 C         -0.1309229411       -2.0240830096       -0.1876832484
 H         -0.0867588261       -1.5075989758       -1.1348898835
 N          2.2770338135       -1.7731775666        0.0186736109
 S          2.7606423964       -0.3780755803        0.8555708457
 O          3.1322535388       -0.7701055824        2.1918566773
 O          1.7432672533        0.6459045222        0.7549561831
 C          4.2103065401        0.0905194914       -0.0688897193
 C          5.4147295039       -0.5181105629        0.2271550222
 C          6.5330635973       -0.1869982327       -0.5210533161
 C          6.4278428352        0.7394324014       -1.5479471142
 C          5.2116632176        1.3417393575       -1.8328950293
 C          4.0888017662        1.0140216004       -1.0891415351
 H          3.1243732575        1.4617455445       -1.2722300829
 H          5.1321367255        2.0627999912       -2.6305074230
 H          7.2992962198        0.9958002484       -2.1294623398
 H          7.4808564326       -0.6517312900       -0.3023171908
 H          5.4483804726       -1.2261004829        1.0383704200
 H          2.1714464182       -1.5095486487       -0.9549054782
 H          1.9083309437       -3.0304162880        2.3090171632
 H         -0.2760095621       -3.7690284968        3.2249944903
 H         -2.3555893534       -3.2942184046        1.9935521615
 H         -3.4834629490       -2.3940177722        0.1891755600
 C         -2.7008740430       -2.5523024678       -1.7905753709
 C         -3.0360660901       -4.0001297571       -1.9800107613
 C         -4.0295989716       -2.9444845020       -2.3599926086
 H         -4.2145772234       -2.7598116732       -3.4074622873
 H         -4.8999603353       -2.8126753201       -1.7335349760
 H         -2.5379125644       -4.5447962476       -2.7671664927
 H         -3.2340200914       -4.5866471328       -1.0955462067
 H         -1.9857859807       -2.1062469596       -2.4682492082
