  62
        -98.94206576
 C          0.6482553110        1.3034149816        0.6420991108
 C          1.2200377785        0.9073566819       -0.5880265634
 C          2.2632296597       -0.1341929860       -0.5235115661
 C          2.5565200832       -0.7003748475        0.6613463681
 C          3.5717800171       -1.7577104387        1.0429639253
 C          4.6219491211       -2.2261514937        0.0396034225
 C          5.7040391036       -1.1920398742       -0.2742088668
 H          6.3475542030       -1.0889885972        0.6032438888
 H          6.3185148508       -1.5730473432       -1.0926364985
 C          5.1999442853        0.2025157278       -0.6374978209
 H          6.0721855496        0.8452170508       -0.7852746801
 H          4.6334096719        0.6178687514        0.1983931056
 C          4.3470198648        0.2798406396       -1.9015952299
 H          4.8988382094       -0.1432346185       -2.7433532203
 H          4.1696936145        1.3372121151       -2.1160117327
 C          2.9778874407       -0.4143107429       -1.8145216321
 H          2.3422981310       -0.0059036952       -2.6053923805
 H          3.0706133078       -1.4827095134       -1.9852871409
 H          4.1455008609       -2.5701472191       -0.8730014186
 H          5.1167035402       -3.0929671864        0.4857956082
 H          2.9897241926       -2.6235447300        1.3726566179
 H          4.0788126250       -1.3752957647        1.9351058528
 O          1.8777798158       -0.3730566230        1.8027838102
 C          0.9475071978        0.6491197066        1.8340990918
 O          0.4649012103        0.8741033189        2.9636350305
 O          0.8941695648        1.4106706525       -1.6935959688
 C         -0.3299046077        2.4639576054        0.6869905722
 C         -1.5121037109        2.1740474426       -0.2030922821
 C         -1.9382718508        3.0157655136       -1.2214670744
 C         -3.0190532653        2.6632787737       -2.0111228124
 C         -3.6944947942        1.4758727577       -1.8013662889
 C         -3.2858312241        0.6348684208       -0.7705819291
 C         -2.2051086609        0.9899630942        0.0197111613
 H         -1.8954490267        0.3407517997        0.8271179841
 N         -3.9655775610       -0.5629038731       -0.5268467456
 S         -3.4134330296       -1.7580729361        0.4748467026
 O         -4.2902220736       -2.8773732300        0.1980530998
 O         -3.3983970747       -1.3060560112        1.8446349844
 C         -1.7625006472       -2.2048160310       -0.0353444111
 C         -0.9882551229       -2.8668580890        0.8963606709
 C          0.2578065087       -3.3409680993        0.5234410104
 C          0.7136204707       -3.1348849420       -0.7687383055
 C         -0.0673154184       -2.4543954586       -1.6885868904
 C         -1.3221708804       -1.9913950373       -1.3255782537
 H         -1.9423314545       -1.4630327898       -2.0311590797
 H          0.2938180872       -2.2820911947       -2.6895395628
 H          1.6814723796       -3.5111426867       -1.0588223448
 H          0.8620486073       -3.8720739980        1.2417607107
 H         -1.3762118458       -2.9937256999        1.8949316592
 H         -4.6184555043       -0.8748437806       -1.2278306692
 H         -4.5323230767        1.1982520542       -2.4219280551
 H         -3.3363713690        3.3210343337       -2.8058599768
 H         -1.4196457837        3.9416739178       -1.4055361770
 H         -0.6916388087        2.5163536420        1.7245135831
 C          0.3868980788        3.7554853142        0.3510256562
 C         -0.1279369212        5.0610054011        0.8755555313
 C          1.1322548055        4.4730807967        1.4341684989
 H          2.0740425164        4.9413661555        1.1901260578
 H          1.1037491727        4.0421476220        2.4248200274
 H         -0.0490883034        5.9372225835        0.2499907793
 H         -1.0141244682        5.0366969717        1.4916693386
 H          0.8354642812        3.7395644194       -0.6355509719
