  62
        -98.93289036
 C         -2.2700497005       -0.6167978635        0.2829181228
 C         -3.4637165857       -0.6606352982        1.0482717491
 C         -4.4822146851        0.3529020152        0.7373895974
 C         -4.2144450085        1.2806369904       -0.1989277812
 C         -5.1711077111        2.3321458962       -0.6846724792
 C         -6.1928760252        1.7053151988       -1.6548217431
 C         -7.6339811545        1.7111075809       -1.1441770619
 H         -8.0392525605        2.7208301400       -1.2376370959
 H         -8.2158872751        1.0607530959       -1.8008053244
 C         -7.8314740421        1.2603192416        0.3063833752
 H         -8.8982485705        1.0656737591        0.4359233419
 H         -7.5807129247        2.0788697092        0.9826828520
 C         -7.0481702851        0.0126477322        0.7348233060
 H         -6.8072491816       -0.6059842684       -0.1301403655
 H         -7.6910734054       -0.5858487919        1.3835126928
 C         -5.7605813240        0.3055771314        1.5276987448
 H         -5.8798176088        1.2383570132        2.0858494051
 H         -5.6089593768       -0.4956831796        2.2571247008
 H         -5.8832017899        0.6787221959       -1.8623015048
 H         -6.1657830160        2.2386195527       -2.6062729368
 H         -4.5827408089        3.0959526952       -1.1934777085
 H         -5.6774897402        2.7886183479        0.1628935459
 O         -3.0404127011        1.3217056798       -0.8777015373
 C         -2.0381713615        0.3816687895       -0.6643176685
 O         -1.0297053134        0.5595662105       -1.3706408106
 O         -3.6669898025       -1.5113146811        1.9557284178
 C         -1.2129577990       -1.6653747620        0.5826483388
 C          0.1326353476       -1.0136274083        0.7715564454
 C          0.3660762957       -0.2720215844        1.9262081177
 C          1.5814096989        0.3522862274        2.1316215123
 C          2.5893061455        0.2550300573        1.1881877139
 C          2.3667730630       -0.4806787516        0.0327541886
 C          1.1477600198       -1.1166127111       -0.1655723580
 H          0.9808255506       -1.6691318604       -1.0772971400
 N          3.3760637209       -0.5640899731       -0.9393120785
 S          4.9370634766       -0.9437009209       -0.4682448350
 O          5.5595066214       -1.5149476396       -1.6428669270
 O          4.9462683702       -1.7614656170        0.7229577145
 C          5.6844022886        0.6364585935       -0.1293429718
 C          6.2882777286        0.8658505110        1.0913086503
 C          6.8745058727        2.0995971047        1.3278844744
 C          6.8478311396        3.0761830949        0.3442273159
 C          6.2391947911        2.8291429897       -0.8774178402
 C          5.6521107017        1.5977814844       -1.1203840368
 H          5.1712031173        1.3665659576       -2.0562687406
 H          6.2197335658        3.5912151988       -1.6398892213
 H          7.3038030922        4.0357822029        0.5303421486
 H          7.3481045662        2.2937485226        2.2768423062
 H          6.2803374109        0.0785448926        1.8283033982
 H          3.1047410744       -1.0639672148       -1.7728921332
 H          3.5381612769        0.7436123860        1.3386186993
 H          1.7463781318        0.9240755460        3.0322936237
 H         -0.4237171419       -0.1877876961        2.6603725000
 H         -1.5209966721       -2.0893708614        1.5526759078
 C         -1.1820036264       -2.8258569827       -0.4009705723
 C         -2.4476863006       -3.3349716662       -1.0213301553
 C         -1.4170952371       -2.6572036278       -1.8711279188
 H         -0.8383434277       -3.2640182856       -2.5529180576
 H         -1.6209585522       -1.6638980139       -2.2388917795
 H         -2.5803372820       -4.4016420577       -1.1216555750
 H         -3.3593596437       -2.7994052020       -0.8001323809
 H         -0.4523551600       -3.5765334116       -0.1103377781
