  62
        -98.94027227
 C          1.9985646900        0.0580405297       -0.4678598705
 C          2.8211545101       -0.5451803796        0.5158657798
 C          4.1424595901        0.0738232005        0.7039128693
 C          4.4800533300        1.1739630702        0.0091059986
 C          5.7747830399        1.9324245903        0.1198865280
 C          6.9147380399        1.3485590899       -0.7259042918
 C          7.5072003600        0.0388847902       -0.2039811611
 H          8.4293318000       -0.1396021100       -0.7607443311
 H          7.7788116501        0.1574326509        0.8454472488
 C          6.5890385701       -1.1805938399       -0.3659713303
 H          5.8057675600       -0.9519565004       -1.0924579604
 H          7.1639364101       -2.0178145501       -0.7683022899
 C          5.9369652703       -1.6598712892        0.9310009000
 H          5.2827042003       -2.5027643694        0.6944208506
 H          6.7077063604       -2.0151207388        1.6185559002
 C          5.0970910703       -0.5942447388        1.6472919195
 H          5.7468940403        0.1433061415        2.1177061990
 H          4.5067182504       -1.0874641884        2.4232372899
 H          6.5535219498        1.2043378193       -1.7468877717
 H          7.7114604198        2.0953581299       -0.7584130423
 H          6.0834602501        1.9814562409        1.1645608279
 H          5.5709659698        2.9467895201       -0.2301028626
 O          3.6414155198        1.7531270996       -0.8916833516
 C          2.4019665298        1.2010865094       -1.1636628412
 O          1.7525518797        1.8103962788       -2.0387032515
 O          2.4923205203       -1.5398690793        1.2096164504
 C          0.6171476800       -0.4619690806       -0.8318005400
 C         -0.4253567700        0.1589112699        0.0608111598
 C         -0.3345109698        0.0653650707        1.4463547498
 C         -1.3018330897        0.6361776511        2.2530893896
 C         -2.3778972098        1.3073731107        1.6980426193
 C         -2.4767944800        1.4059760399        0.3172248593
 C         -1.5048745401        0.8316861495       -0.4917875805
 H         -1.5801200402        0.9243836789       -1.5669629705
 N         -3.5899396201        2.0630828195       -0.2487751010
 S         -5.0787165800        1.3697694296        0.0992226996
 O         -5.9819502502        1.8563927290       -0.9183158505
 O         -5.4328254599        1.6674957204        1.4631216095
 C         -4.7863567599       -0.3779528705       -0.0977134394
 C         -4.4558393698       -1.1426246198        1.0028944110
 C         -4.1211260597       -2.4742877099        0.8155509117
 C         -4.1218145298       -3.0148951406       -0.4606148280
 C         -4.4644996600       -2.2354339313       -1.5551902984
 C         -4.7930392301       -0.9016787712       -1.3755296091
 H         -5.0656775002       -0.2622714917       -2.2001886394
 H         -4.4667531801       -2.6602412319       -2.5463031781
 H         -3.8497559498       -4.0483067807       -0.6038674974
 H         -3.8539832196       -3.0834841194        1.6639096620
 H         -4.4693753597       -0.6862343292        1.9788071107
 H         -3.5031386102        2.2037961390       -1.2455287810
 H         -3.1459205098        1.7506865210        2.3112381992
 H         -1.2182194896        0.5579016017        3.3265332796
 H          0.5002860103       -0.4643198690        1.8795371600
 H          0.4368889598       -0.0949328312       -1.8544464302
 C          0.5368956201       -1.9829115806       -0.8743125791
 C         -0.3395682198       -2.7948485301        0.0274698515
 C         -0.6975830600       -2.6402165410       -1.4176091986
 H         -0.5862999500       -3.4868660313       -2.0775581481
 H         -1.5338840700       -1.9992773712       -1.6548725689
 H          0.0456002103       -3.7425376799        0.3708916820
 H         -0.9445057197       -2.2795873997        0.7565836112
 H          1.4855922101       -2.4311292607       -1.1491596290
