  62
        -98.94227184
 C         -1.1928700701       -0.9490495808        0.4457407898
 C         -2.0617949901       -0.7256499008       -0.6459615602
 C         -3.0529540406        0.3550802887       -0.4878292600
 C         -3.0550366009        1.0923280485        0.6383012602
 C         -3.8980713314        2.2803240081        1.0543226105
 C         -5.1510165615        2.6623311878        0.2710345505
 C         -6.3033834211        1.6641269573        0.3840087502
 H         -6.7044776911        1.7131421169        1.3994234802
 H         -7.0942679912        1.9756736372       -0.3016201497
 C         -5.9439810705        0.2077573475        0.1012766099
 H         -5.2105084004       -0.1372220224        0.8327444199
 H         -6.8469323203       -0.3924231129        0.2416117997
 C         -5.4135117104       -0.0732264820       -1.3028982601
 H         -6.1247841905        0.2939368279       -2.0453043401
 H         -5.3405928199       -1.1580832819       -1.4168431004
 C         -4.0289959906        0.5183025286       -1.6175213700
 H         -3.6086249203       -0.0340355010       -2.4633765301
 H         -4.1019559910        1.5614691587       -1.9162398197
 H         -4.9007238915        2.8446284481       -0.7699651295
 H         -5.4970007919        3.6142079875        0.6831798407
 H         -3.2133644117        3.1363884283        1.0554550707
 H         -4.1698390813        2.1034639677        2.1001830704
 O         -2.1613867008        0.8686951186        1.6470952502
 C         -1.2140756804       -0.1356692310        1.5760518600
 O         -0.4586057205       -0.2033126410        2.5681376700
 O         -2.0131765198       -1.3904755906       -1.7140991103
 C         -0.1323511697       -2.0307535603        0.3678337796
 C          0.8548007602       -1.7140877197       -0.7310243903
 C          1.4213642607       -2.6777557593       -1.5559050205
 C          2.3424870105       -2.3139973787       -2.5233743504
 C          2.7382202700       -0.9969181985       -2.6730518400
 C          2.1813216696       -0.0267708789       -1.8478603098
 C          1.2453336297       -0.3925738795       -0.8949034400
 H          0.7993459994        0.3744316902       -0.2808183398
 N          2.5510070491        1.3233437712       -1.9492884695
 S          2.6707170887        2.2374298210       -0.5531246893
 O          1.3611197586        2.6018670503       -0.0720628493
 O          3.5311310183        3.3409037714       -0.9256068390
 C          3.5201259791        1.1780064210        0.6043948905
 C          2.8630024993        0.6250038505        1.6838361603
 C          3.5585467196       -0.2373734494        2.5180771702
 C          4.8881472397       -0.5310720788        2.2618610001
 C          5.5370767495        0.0396918017        1.1769602803
 C          4.8479265392        0.8994922516        0.3388426605
 H          5.3196391391        1.3722319420       -0.5072715294
 H          6.5729807196       -0.1855827879        0.9816409703
 H          5.4206330599       -1.2060645388        2.9131343200
 H          3.0445357197       -0.6754639698        3.3589896600
 H          1.8250029292        0.8579971001        1.8659521303
 H          3.3044291391        1.5148068317       -2.5930121294
 H          3.4610253700       -0.7183768381       -3.4241901899
 H          2.7666525309       -3.0703732384       -3.1659069505
 H          1.1358474810       -3.7111384794       -1.4469586507
 H          0.4132902203       -1.9870246603        1.3229686096
 C         -0.7696054291       -3.3980653105        0.2319874293
 C         -0.1099619987       -4.6036637504        0.8290561490
 C         -1.3539189089       -4.0456179810        1.4504246791
 H         -2.2770166487       -4.5963645114        1.3495295289
 H         -1.2658500892       -3.5112108512        2.3855890892
 H         -0.1811251683       -5.5437020903        0.3029671888
 H          0.8236592012       -4.4572039902        1.3507739891
 H         -1.3065318491       -3.5143309105       -0.7020181508
