  62
        -98.94033469
 C          2.0717039064       -0.0332708910       -0.1637876151
 C          2.9940616274        1.0369940033       -0.2849441812
 C          4.2881695093        0.8655515778        0.3865724608
 C          4.5204730625       -0.2622337236        1.0822956651
 C          5.8091961969       -0.5937066974        1.7761567015
 C          6.7528688582       -1.3737449328        0.8503000357
 C          6.9251301462       -0.7402490453       -0.5302362693
 H          7.6345450178       -1.3577417171       -1.0854559795
 H          5.9732353855       -0.7854194652       -1.0643288479
 C          7.4222641901        0.7119182583       -0.5045601260
 H          7.8647891224        0.9351475735        0.4669192377
 H          8.2095339644        0.8258144813       -1.2528378722
 C          6.3502396350        1.7556864889       -0.8240803224
 H          6.8487790034        2.7137596591       -0.9943140759
 H          5.8396668338        1.4841869235       -1.7515986256
 C          5.2899366492        1.9787444355        0.2618882975
 H          5.7787297417        2.1672016064        1.2200629562
 H          4.7160851689        2.8691767471       -0.0115444235
 H          7.7254783820       -1.4567208224        1.3387440611
 H          6.3522302093       -2.3812862080        0.7169520810
 H          6.2855380646        0.3275016857        2.1061566464
 H          5.5818893797       -1.2075428582        2.6494270545
 O          3.6099715144       -1.2603444183        1.1924433312
 C          2.3713002085       -1.1856642436        0.5657151596
 O          1.6584085447       -2.1892290109        0.7507265802
 O          2.7451790984        2.0886796683       -0.9359047677
 C          0.7486741355        0.1140638229       -0.8852409118
 C         -0.4134385353        0.4809658101        0.0114931442
 C         -0.4144176433        0.2584267977        1.3815390405
 C         -1.5186986983        0.5894293754        2.1488012842
 C         -2.6438304284        1.1435892004        1.5683787199
 C         -2.6578135608        1.3657238926        0.1968756949
 C         -1.5481991255        1.0363117673       -0.5680346660
 H         -1.5640222641        1.2225602206       -1.6318376297
 N         -3.8028852210        1.9165702042       -0.4025077584
 S         -5.2873174562        1.2503966109       -0.0029138911
 O         -6.1512990079        1.5624592250       -1.1186747081
 O         -5.7106680451        1.7440450213        1.2828142797
 C         -4.9801221685       -0.5046041890        0.0845406213
 C         -4.6531500555       -1.1634245673       -1.0843579889
 C         -4.3553148794       -2.5148751395       -1.0312351585
 C         -4.3827964585       -3.1803658187        0.1849177055
 C         -4.7168809999       -2.5057886625        1.3486007517
 C         -5.0175106483       -1.1538007236        1.3013407492
 H         -5.2832223091       -0.5940280675        2.1830582655
 H         -4.7388944136       -3.0269269247        2.2921374272
 H         -4.1425504441       -4.2311556187        0.2249215249
 H         -4.0980826329       -3.0439663878       -1.9348299430
 H         -4.6479932692       -0.6175497487       -2.0139868472
 H         -3.7213074736        2.0490773596       -1.4000412994
 H         -3.5064462290        1.4148153786        2.1547228911
 H         -1.4990981821        0.4132408304        3.2135826798
 H          0.4520980532       -0.1827560375        1.8492147537
 H          0.8988841436        0.9495355036       -1.5843820430
 C          0.3919462200       -1.1265881282       -1.6880152962
 C         -0.2491757281       -1.0038342338       -3.0361840177
 C          1.1770097109       -1.4500485007       -2.9225456425
 H          1.4209231633       -2.4823213017       -3.1223086298
 H          1.9521340062       -0.7555535142       -3.2138423283
 H         -0.9936565974       -1.7315702352       -3.3195743470
 H         -0.4275788482       -0.0135871750       -3.4275021194
 H          0.0959605710       -1.9587069378       -1.0614901597
