  62
        -98.93824446
 C         -1.4134044102       -1.5199542934       -0.4019412869
 C         -2.7207888634       -1.5425677358        0.1535894137
 C         -3.5825403161       -0.3976803528       -0.1534793022
 C         -3.1127010536        0.5973661213       -0.9270770095
 C         -3.8716656844        1.8281294423       -1.3447863373
 C         -3.8728715845        2.9553699831       -0.3027155379
 C         -4.7367161741        2.7024369491        0.9332340563
 H         -4.8188747233        3.6515206589        1.4668095741
 H         -5.7422958437        2.4170379789        0.6229086234
 C         -4.1716261939        1.6446894502        1.8916824139
 H         -4.2229918430        2.0162573663        2.9176161387
 H         -3.1167445158        1.4721704655        1.6657258100
 C         -4.9056376884        0.3045179539        1.8564126435
 H         -4.4019094050       -0.3818839763        2.5418684077
 H         -5.9313366166        0.4376331270        2.2077405663
 C         -4.9445626268       -0.3529617989        0.4708961599
 H         -5.2902108225       -1.3828123405        0.5899472873
 H         -5.6426031575        0.1766220289       -0.1773274788
 H         -2.8452154091        3.1461369918        0.0126055482
 H         -4.2426469732        3.8558129237       -0.7987102870
 H         -4.9000814033        1.5571013406       -1.5862689322
 H         -3.3894071644        2.1966579075       -2.2526389734
 O         -1.8641664880        0.5766156193       -1.4562444432
 C         -0.9797909993       -0.4668112889       -1.2107111615
 O          0.1189452519       -0.3183234953       -1.7734695755
 O         -3.1495153542       -2.4841363022        0.8736750920
 C         -0.5059194305       -2.6912544710       -0.0400915546
 C          0.7146463100       -2.1764317969        0.6785193792
 C          0.6842942675       -2.1317678809        2.0715131059
 C          1.7257676797       -1.5813204853        2.7955812528
 C          2.8266518085       -1.0478625961        2.1482480737
 C          2.8656377344       -1.0792948212        0.7617399116
 C          1.8295786779       -1.6545773737        0.0384213998
 H          1.8840141031       -1.6382912058       -1.0359059442
 N          3.9636248532       -0.5043710978        0.0824927745
 S          4.1498836715        1.1512508032        0.2580971482
 O          5.1642470217        1.5281291331       -0.7001371921
 O          4.4442109512        1.4373172959        1.6401473137
 C          2.5857930017        1.8800023881       -0.1920493610
 C          1.5702836046        1.9279419216        0.7411456801
 C          0.3489620699        2.4655151333        0.3700896406
 C          0.1648907695        2.9428426796       -0.9174528609
 C          1.1933511713        2.8822692699       -1.8432849096
 C          2.4148719126        2.3411735646       -1.4810200989
 H          3.2410835446        2.2750892495       -2.1709413566
 H          1.0416028472        3.2443389200       -2.8474404083
 H         -0.7890895637        3.3548205997       -1.2071405025
 H         -0.4571327743        2.5006642532        1.0874615308
 H          1.7480240896        1.5506685090        1.7355238477
 H          3.9615055380       -0.7196669075       -0.9055516671
 H          3.6362584225       -0.5871211490        2.6904826182
 H          1.6784962681       -1.5615632801        3.8739215943
 H         -0.1803150391       -2.5246998533        2.5880139721
 H         -1.0934196719       -3.2447547742        0.7085881926
 C         -0.3208038124       -3.6731727437       -1.1914986844
 C          0.4088341686       -3.4011527521       -2.4719907670
 C          0.9711453171       -4.3758389197       -1.4821931862
 H          0.9372953012       -5.4273736013       -1.7255982936
 H          1.8417729177       -4.0853149910       -0.9148072051
 H         -0.0258703723       -3.7925393828       -3.3812571918
 H          0.8757452573       -2.4402590248       -2.6084178302
 H         -1.2199520052       -4.2735745535       -1.3056274464
