  62
        -98.94660264
 C          2.4965709565        0.3364655840       -0.0195760163
 C          2.3161964899        1.4823199531       -0.8277752725
 C          1.6414573357        2.6158308809       -0.1885959471
 C          1.2437483946        2.5171799247        1.0930815029
 C          0.5110166989        3.5743752222        1.8735461395
 C         -1.0044011720        3.5657919307        1.6263765834
 C         -1.4461642462        4.1500236557        0.2834089450
 H         -2.5236744992        4.3145787597        0.3466943669
 H         -0.9739353493        5.1223979100        0.1361693265
 C         -1.1590610827        3.2429940002       -0.9210188993
 H         -0.9872232058        2.2237449626       -0.5673656186
 H         -2.0384037843        3.2164527152       -1.5695038631
 C          0.0226763582        3.6835644828       -1.7853657183
 H         -0.2069654959        4.6407631327       -2.2599080389
 H          0.1648100153        2.9407369338       -2.5745411494
 C          1.3483399015        3.8242411355       -1.0270918482
 H          2.1527787189        3.9190282296       -1.7611684768
 H          1.3335404080        4.7200192522       -0.4065867184
 H         -1.4705134263        4.1469795839        2.4259242596
 H         -1.3605180774        2.5350261955        1.7068892410
 H          0.9180152506        4.5591851442        1.6409433153
 H          0.6907412111        3.3622946213        2.9297882896
 O          1.4831007483        1.4166124461        1.8540622007
 C          2.0720938118        0.2886996183        1.3088877655
 O          2.1852015938       -0.6686453226        2.1015765009
 O          2.6923864831        1.5491753816       -2.0305411922
 C          3.0742793206       -0.9227245381       -0.6398213099
 C          2.0840259483       -2.0515399199       -0.4817271674
 C          2.4498028414       -3.3555778051       -0.1752612547
 C          1.4817076613       -4.3265294016        0.0179051530
 C          0.1375219223       -4.0117710463       -0.0564823615
 C         -0.2381516855       -2.7129543930       -0.3792341319
 C          0.7338305623       -1.7615879484       -0.6337849692
 H          0.4320937540       -0.7587641400       -0.8949666371
 N         -1.5989389311       -2.3355489255       -0.4557680014
 S         -2.1034970020       -1.0986583613        0.5882453847
 O         -1.2820910273        0.0681794449        0.4152815472
 O         -2.2120618382       -1.6265322992        1.9340641687
 C         -3.7338267948       -0.7912281860       -0.0638744483
 C         -3.8629810183        0.0748540846       -1.1319733543
 C         -5.1218059740        0.2959700227       -1.6674687224
 C         -6.2242091480       -0.3519964301       -1.1303572469
 C         -6.0791843989       -1.2178720675       -0.0571020826
 C         -4.8225697105       -1.4426269396        0.4829083009
 H         -4.6648349911       -2.0964234226        1.3254998933
 H         -6.9384247271       -1.7173368123        0.3605717455
 H         -7.2027658914       -0.1780761026       -1.5491543064
 H         -5.2374131153        0.9713700736       -2.4998009163
 H         -2.9789293458        0.5615301121       -1.5107931103
 H         -2.2079654160       -3.1288414801       -0.2923303735
 H         -0.6162102202       -4.7602444765        0.1392486156
 H          1.7787285229       -5.3362505699        0.2585158472
 H          3.4923340692       -3.6097699222       -0.0722793231
 H          3.1902384497       -0.6988459503       -1.7112352220
 C          4.4365294002       -1.2359933802       -0.0567917424
 C          5.4830689023       -1.9126762584       -0.8898744941
 C          5.6245410641       -0.4623075663       -0.5420409341
 H          6.3778520103       -0.1715335376        0.1745511073
 H          5.4515776269        0.2710969054       -1.3159813757
 H          6.1449971871       -2.6188434196       -0.4115498678
 H          5.2259845007       -2.1651438852       -1.9074432528
 H          4.3880204699       -1.4706179541        1.0010506676
