  62
        -98.94526879
 C         -1.6051535679       -0.1629185175       -0.6207179010
 C         -2.8788631067       -0.6245268129       -1.0362550268
 C         -3.9322065028       -0.6136176819       -0.0160673302
 C         -3.6411476870       -0.2214421899        1.2375345368
 C         -4.5966439078       -0.1916975378        2.3996652589
 C         -5.4637216268        1.0731459587        2.4658957375
 C         -6.5679874492        1.1616405913        1.4116559771
 H         -7.1577566932        0.2445809009        1.4274882044
 H         -7.2286748174        1.9786351924        1.7083795046
 C         -6.0629167622        1.4276779359       -0.0133072590
 H         -6.6697707823        2.2099977670       -0.4745502556
 H         -5.0370318636        1.8005628512        0.0280164554
 C         -6.1100871968        0.2125808306       -0.9396288402
 H         -7.1479986282       -0.0898123913       -1.0953384366
 H         -5.6949211189        0.5034041338       -1.9078541000
 C         -5.3200166475       -1.0000266219       -0.4304139252
 H         -5.2340295206       -1.7214029710       -1.2467250541
 H         -5.8472270133       -1.4718367384        0.3985643749
 H         -5.9307377840        1.0954494979        3.4532838462
 H         -4.8128080935        1.9468774632        2.3868117123
 H         -5.2382404306       -1.0729360772        2.3685962562
 H         -3.9858393670       -0.2387550517        3.3039958270
 O         -2.3980097771        0.1859938244        1.6062675006
 C         -1.3540781986        0.2402877312        0.6913274013
 O         -0.2854812710        0.6647696052        1.1692456317
 O         -3.1216583318       -1.0314252310       -2.2038954515
 C         -0.4742444713       -0.1669620718       -1.6365075309
 C          0.4923060148       -1.2647189046       -1.2642585121
 C          0.0807533532       -2.5906001844       -1.3827905269
 C          0.9256320015       -3.6244991732       -1.0303705343
 C          2.1922034232       -3.3583070035       -0.5370188148
 C          2.6102223492       -2.0406072477       -0.4089139004
 C          1.7658621248       -1.0046782144       -0.7863296593
 H          2.1080681378        0.0099407280       -0.6923257021
 N          3.8946028799       -1.7256055125        0.0716782429
 S          4.0124025708       -0.6566382341        1.3672057817
 O          5.3409212356       -0.8931656568        1.8962830970
 O          2.9239388750       -0.8390183485        2.2982395130
 C          3.9756332347        0.9608079659        0.6270002093
 C          5.0290779541        1.3157746124       -0.1929857037
 C          5.0231280181        2.5677830799       -0.7859497822
 C          3.9712480512        3.4393906890       -0.5456855622
 C          2.9246359144        3.0681767930        0.2845583451
 C          2.9211210160        1.8158425712        0.8802990350
 H          2.1062714821        1.4802960087        1.5039968271
 H          2.1027047041        3.7423210740        0.4682311396
 H          3.9640383969        4.4137939482       -1.0086973046
 H          5.8339055675        2.8598302832       -1.4336468685
 H          5.8283830753        0.6099474059       -0.3455058669
 H          4.4772939015       -2.5338293532        0.2424358445
 H          2.8503158627       -4.1653229398       -0.2512475953
 H          0.5955496430       -4.6475749733       -1.1319848974
 H         -0.9135262689       -2.7963668153       -1.7547383357
 H         -0.9457898335       -0.4435966823       -2.5903729222
 C          0.1696917336        1.1947702894       -1.7813159409
 C          1.0457261006        1.4779069952       -2.9639921240
 C         -0.3019885208        2.1241127911       -2.8572637363
 H         -0.3533806844        3.1799640663       -2.6384666870
 H         -1.0895427873        1.7753567458       -3.5092862050
 H          1.9239673062        2.0881341906       -2.8170627855
 H          1.1728265475        0.6881632345       -3.6886955981
 H          0.4457049936        1.6361483172       -0.8316816366
