  62
        -98.94463305
 C          1.9887749854        0.7816833155        0.5428128810
 C          1.9756410686        0.0799557342       -0.6864244570
 C          2.0860772223       -1.3814502682       -0.5904784229
 C          2.1273004816       -1.9605431189        0.6229072533
 C          2.2707623339       -3.4349891264        0.8653845827
 C          3.7465636892       -3.8398853788        0.9896329630
 C          4.6316662644       -3.2993236770       -0.1333510227
 H          4.6707284792       -2.2101049320       -0.0613130382
 H          5.6432829426       -3.6709641300        0.0429343650
 C          4.1788206681       -3.6971026912       -1.5450090348
 H          5.0527856883       -4.0174624138       -2.1158980632
 H          3.4974649845       -4.5466680344       -1.4894125882
 C          3.5169218274       -2.5697712283       -2.3396344771
 H          3.4337597259       -2.8909719626       -3.3812215997
 H          4.1558848693       -1.6834966424       -2.3197811333
 C          2.1133104773       -2.1598951271       -1.8753058260
 H          1.6886821077       -1.4940993743       -2.6325279841
 H          1.4728723396       -3.0414634352       -1.8019502895
 H          4.1289897336       -3.4610526181        1.9401971402
 H          3.8042548262       -4.9296459400        1.0093966232
 H          1.7533388330       -3.6801836355        1.7946972279
 H          1.7992766762       -3.9764019033        0.0473400955
 O          2.0923444594       -1.2559062446        1.7841324739
 C          2.0217960512        0.1273546071        1.7723977983
 O          2.0002115629        0.6522723923        2.9061720728
 H         -0.5194100935        1.1640533440        0.9364824377
 C         -0.5811525290        1.9477953931        0.1938922593
 C          0.5585195023        2.6697374564       -0.1380611322
 C          0.4505717232        3.6851023354       -1.0789503048
 C         -0.7628463625        3.9390004073       -1.6955367412
 C         -1.8826094051        3.1851006685       -1.3982517980
 C         -1.7890841987        2.1810551229       -0.4400060254
 N         -2.9112476060        1.4098986495       -0.0891421993
 S         -2.6671480797       -0.1945135408        0.3775922693
 O         -2.3258452033       -0.2216071409        1.7791717299
 O         -1.7488959453       -0.8543405515       -0.5229043633
 C         -4.3181555483       -0.8327807089        0.1554457254
 C         -5.2638114857       -0.5787043229        1.1310680434
 C         -6.5576797996       -1.0393215019        0.9459480404
 C         -6.8829807052       -1.7417196950       -0.2051355626
 C         -5.9229499927       -1.9909994544       -1.1742777167
 C         -4.6272429609       -1.5314477102       -0.9961383400
 H         -3.8450612558       -1.7060368315       -1.7176371897
 H         -6.1773327920       -2.5401365146       -2.0664543047
 H         -7.8904639760       -2.0996256011       -0.3465117826
 H         -7.3057629732       -0.8495214997        1.6985638994
 H         -4.9604682322       -0.0372323217        2.0119323052
 H         -3.6663414490        1.4909304306       -0.7567119362
 H         -2.8208058056        3.3679737564       -1.8995459885
 H         -0.8321948509        4.7248171303       -2.4323948181
 H          1.3188872690        4.2670110180       -1.3412208553
 C          1.8511751052        2.2939170527        0.5462942295
 H          1.7804208805        2.5918746468        1.6032459349
 C          3.0743700573        2.9422151233       -0.0674439635
 C          3.5096460496        4.3062074999        0.3745082702
 C          4.3053842842        3.1003227707        0.7716882564
 H          5.2681499160        2.9396681140        0.3103416135
 H          4.2505478689        2.7625387439        1.7966780093
 H          3.9312181827        4.9760268866       -0.3596306936
 H          2.9211261336        4.7960835297        1.1354414287
 H          3.2086196862        2.6700956435       -1.1080246260
 O          1.8841498180        0.6463225739       -1.8075975878
