  62
        -98.94448454
 C          1.5834956661        1.4894898528        0.2079330910
 C          1.7715066383        0.4317142417        1.1364882561
 C          2.9980584772       -0.3621785154        0.9898863140
 C          3.8415941069       -0.0792196156       -0.0198565923
 C          5.1072517470       -0.8285182393       -0.3181883358
 C          4.8509675673       -1.9953381868       -1.2820582211
 C          3.6818411366       -2.8876737335       -0.8666077285
 H          2.7588495269       -2.3069111926       -0.9257007198
 H          3.6058535835       -3.6907906346       -1.6023455469
 C          3.8161160548       -3.4908226137        0.5386799224
 H          3.5531009031       -4.5497334101        0.4939597239
 H          4.8536503718       -3.4294196726        0.8692288969
 C          2.9120878286       -2.8544658847        1.5961940034
 H          2.9538859061       -3.4757762442        2.4950376449
 H          1.8760975708       -2.8603708286        1.2502206509
 C          3.2719781229       -1.4246270496        2.0183288529
 H          4.3187677706       -1.3883139919        2.3289726344
 H          2.6503013905       -1.1712036781        2.8825139769
 H          5.7618883159       -2.5925916158       -1.3510121720
 H          4.6365469963       -1.5859600831       -2.2718292321
 H          5.8148998360       -0.1366438299       -0.7778040447
 H          5.5303855484       -1.1994794880        0.6135506376
 O          3.6060030558        0.9055247019       -0.9197096282
 C          2.4873640403        1.7228209664       -0.8298196329
 O          2.4364856570        2.5882937946       -1.7241262963
 O          0.9531769477        0.1747291875        2.0612961681
 C          0.3636317831        2.3712062641        0.4187527343
 C         -0.7775244034        1.9845507859       -0.4909567377
 C         -0.7041102173        2.1472151577       -1.8708168307
 C         -1.7734712585        1.7935025530       -2.6727499970
 C         -2.9246592697        1.2564325059       -2.1220591387
 C         -3.0046487848        1.0828000061       -0.7462951173
 C         -1.9379256389        1.4593688081        0.0586623401
 H         -2.0183467612        1.3220418021        1.1266111733
 N         -4.1534648996        0.5313250774       -0.1501430157
 S         -3.9537623120       -0.7393356626        0.9264543252
 O         -5.2634340816       -1.3470459277        1.0163490923
 O         -3.3936796049       -0.2570975944        2.1611741075
 C         -2.8322017577       -1.8347151758        0.0775467726
 C         -3.3774883067       -2.7269483530       -0.8264117757
 C         -2.5337336210       -3.5222955989       -1.5831615938
 C         -1.1601225432       -3.3970818816       -1.4397002153
 C         -0.6309527796       -2.4953456277       -0.5307206114
 C         -1.4677948856       -1.7072920856        0.2442091499
 H         -1.0685321373       -1.0129622568        0.9672616177
 H          0.4371190953       -2.3899485413       -0.4191377121
 H         -0.4970683899       -4.0046998696       -2.0350387186
 H         -2.9455476199       -4.2293728721       -2.2849793371
 H         -4.4508802500       -2.7901085758       -0.9054409863
 H         -4.8923346997        0.3186294210       -0.8058120934
 H         -3.7552441264        0.9751936576       -2.7514465439
 H         -1.7068917873        1.9289554662       -3.7415855758
 H          0.2012740031        2.5417860623       -2.3053685680
 H          0.0412865322        2.1670937523        1.4495574396
 C          0.6661459354        3.8527344435        0.3021660147
 C         -0.2625125948        4.8318300628        0.9526467757
 C          1.1075999129        4.6080980995        1.5177421046
 H          1.8491949300        5.3839978633        1.4009038606
 H          1.1933207808        4.0593713309        2.4447213399
 H         -0.4645530124        5.7638276953        0.4476746681
 H         -1.1065334196        4.4345559288        1.4968761572
 H          1.1110164174        4.1313455067       -0.6437705472
