  62
        -98.94482316
 C         -2.5774738695       -0.1561018502        0.0773331294
 C         -2.3625735694        0.8324662302        1.0660794190
 C         -2.2003768493        2.2077919599        0.5789337184
 C         -2.2820152892        2.4509050994       -0.7417669517
 C         -2.1468811791        3.8048614891       -1.3755876722
 C         -0.7039002491        4.0946901288       -1.8070738724
 C          0.3398069709        3.8318080091       -0.7211019223
 H          0.4119245008        2.7576297892       -0.5335236918
 H          1.3066364009        4.1444323788       -1.1224972424
 C          0.0840206510        4.5629444697        0.6039114474
 H          1.0318572611        4.9704324997        0.9619492073
 H         -0.5918942589        5.4039198197        0.4418601871
 C         -0.4655193691        3.6767577102        1.7241154778
 H          0.1336674808        2.7633543702        1.7899466182
 H         -0.3510579190        4.2128549506        2.6705765476
 C         -1.9425208991        3.2792672103        1.5997377780
 H         -2.5474962290        4.1656162003        1.3960786076
 H         -2.2585284892        2.8600605508        2.5597474981
 H         -0.4656828091        3.4637612084       -2.6663072621
 H         -0.6458657889        5.1384761186       -2.1229528328
 H         -2.7904332691        3.8315911688       -2.2570269123
 H         -2.4840459790        4.5612164894       -0.6692548426
 O         -2.4880436794        1.4753379390       -1.6630665413
 C         -2.5992125595        0.1460495292       -1.2836810607
 O         -2.7271639496       -0.6495197612       -2.2343017304
 O         -2.3197566894        0.5758719707        2.3017838591
 C         -2.6945540697       -1.6075488800        0.5022294200
 C         -1.5297331098       -2.4040272504       -0.0360254097
 C         -1.6433038899       -3.7087446506       -0.4984072991
 C         -0.5255277100       -4.3872056009       -0.9542734189
 C          0.7197076101       -3.7873646110       -0.9579434491
 C          0.8431320702       -2.4783088209       -0.5018125297
 C         -0.2750572397       -1.8085306005       -0.0361942799
 H         -0.1679226296       -0.7984170804        0.3310625097
 N          2.0826709003       -1.8198711610       -0.5409138499
 S          2.3572843404       -0.4698609506        0.4260821895
 O          2.0802262204       -0.7778392300        1.8125153496
 O          1.6610987406        0.6589726392       -0.1364164410
 C          4.1141090505       -0.2815152109        0.1894057694
 C          4.9801365404       -0.9203595507        1.0570940697
 C          6.3454892104       -0.8021439409        0.8507866996
 C          6.8194627905       -0.0520941814       -0.2151968107
 C          5.9385208605        0.5856108083       -1.0759321110
 C          4.5718686205        0.4708817386       -0.8751787509
 H          3.8484097106        0.9530370184       -1.5121467111
 H          6.3103974206        1.1711287579       -1.9012038612
 H          7.8822980605        0.0387129784       -0.3742556407
 H          7.0325613503       -1.2937860207        1.5204679798
 H          4.5657501203       -1.4817801803        1.8791113299
 H          2.8751474002       -2.4453593411       -0.5707226497
 H          1.5874727700       -4.3177550413       -1.3186444789
 H         -0.6266857101       -5.4009402910       -1.3112165184
 H         -2.6059541400       -4.1932566305       -0.5036534889
 H         -2.6119747597       -1.5962929496        1.6007089700
 C         -4.0444688498       -2.1780459301        0.1204963703
 C         -4.6898433099       -3.2316233496        0.9689851007
 C         -5.2362151097       -1.8366592196        0.9623848301
 H         -6.1789523597       -1.6507386097        0.4704311400
 H         -5.0661379396       -1.2150314192        1.8296256099
 H         -5.2627478900       -4.0061221398        0.4817745910
 H         -4.1573310899       -3.5607254093        1.8486525608
 H         -4.1859757598       -2.2231627005       -0.9533202297
