  62
        -98.93942957
 C         -1.9218833813       -0.9023626096        0.2405958817
 C         -2.2942458423        0.1056943360        1.1640718982
 C         -2.6045063422        1.4251313303        0.6008323235
 C         -2.4579039121        1.6228327798       -0.7216513419
 C         -2.7687891850        2.9045943705       -1.4378873789
 C         -4.2224899521        2.9309729130       -1.9305810542
 C         -5.2439452260        2.5497468762       -0.8591345390
 H         -5.0997157637        1.5015288772       -0.5875471175
 H         -6.2350411793        2.6320122451       -1.3101406904
 C         -5.1853501421        3.4127286502        0.4089659675
 H         -6.2030558901        3.6877994527        0.6933609292
 H         -4.6444132085        4.3370139988        0.2034474589
 C         -4.5574449547        2.7187391262        1.6191727348
 H         -5.0344630106        1.7476167620        1.7738881270
 H         -4.7602942775        3.3274524930        2.5042738983
 C         -3.0398743930        2.5037163344        1.5526751510
 H         -2.7038322978        2.1803276560        2.5426355304
 H         -2.5423931394        3.4470042015        1.3160019894
 H         -4.3182205150        2.2279748710       -2.7611607524
 H         -4.4412288338        3.9325730716       -2.3049228549
 H         -2.0986622932        2.9866080015       -2.2953281754
 H         -2.5842493818        3.7409352134       -0.7661760253
 O         -2.0466392411        0.6496913553       -1.5715688239
 C         -1.7570254698       -0.6300404220       -1.1186203619
 O         -1.3776637183       -1.4055297471       -2.0161182426
 O         -2.3584293504       -0.0905197524        2.4093873902
 C         -1.5529750088       -2.2654872988        0.7974403768
 C         -0.2084952561       -2.6944053134        0.2614548525
 C          0.0634203824       -3.9630639525       -0.2310158474
 C          1.3315206087       -4.2757614750       -0.6922525516
 C          2.3436435217       -3.3359002526       -0.6852870697
 C          2.0775341131       -2.0562215726       -0.2051434398
 C          0.8196590357       -1.7586696810        0.2867283378
 H          0.6260899178       -0.7689807452        0.6766717795
 N          3.0691283597       -1.0631023533       -0.2549220338
 S          2.8796003173        0.4200897298        0.5036300411
 O          2.7422482213        0.2511852462        1.9353430708
 O          1.8339538027        1.1601797897       -0.1586076661
 C          4.4631433779        1.1489370808        0.1303453557
 C          4.6554837328        1.6981888986       -1.1233140086
 C          5.8900941136        2.2456891852       -1.4333943557
 C          6.9070378764        2.2346232040       -0.4900283727
 C          6.6990087931        1.6818159190        0.7645188101
 C          5.4664416027        1.1317220511        1.0805325291
 H          5.2548762369        0.6999755077        2.0454673780
 H          7.4901088214        1.6778623255        1.4967937644
 H          7.8665553760        2.6625329863       -0.7337200228
 H          6.0537140289        2.6787080854       -2.4070141376
 H          3.8319042295        1.6915852013       -1.8185896746
 H          4.0140215653       -1.4153761618       -0.2096470537
 H          3.3259569646       -3.5774156789       -1.0603989933
 H          1.5305861519       -5.2669310905       -1.0707831065
 H         -0.7175720353       -4.7043238655       -0.2701471391
 H         -1.4336070497       -2.0878469340        1.8810495623
 C         -2.6355531778       -3.3252741637        0.6508441156
 C         -4.0635811545       -2.9477932566        0.3962352600
 C         -3.2700057577       -3.6374271358       -0.6703293209
 H         -3.5045785275       -4.6674944707       -0.8956412569
 H         -2.9443942213       -3.0627204959       -1.5227919058
 H         -4.8385113193       -3.5009426623        0.9056422294
 H         -4.2878908512       -1.8986048937        0.2670750164
 H         -2.4796177051       -4.1619975849        1.3249487902
