  62
        -98.93439659
 C         -1.8705448275       -1.5673004308        0.0188154423
 C         -2.1556916401       -0.5324183624       -0.9049030580
 C         -3.5151638881        0.0347407843       -0.8419994396
 C         -4.3877979927       -0.4310406485        0.0684163909
 C         -5.7720812520        0.1013988136        0.3069606471
 C         -5.7013846501        1.4125664557        1.1155908593
 C         -6.1780939257        2.6497298069        0.3541285941
 H         -7.2690845062        2.6389687021        0.3075308769
 H         -5.8823148527        3.5253958449        0.9359856389
 C         -5.6503070274        2.7996058742       -1.0761340285
 H         -6.2254591484        2.1609825858       -1.7482501136
 H         -5.8478762787        3.8295239132       -1.3810997236
 C         -4.1580716948        2.5046491350       -1.2761374393
 H         -3.7617805894        3.2308416257       -1.9890017356
 H         -3.6103800665        2.6449494260       -0.3436547853
 C         -3.8524082914        1.1053082097       -1.8431505107
 H         -2.9707659971        1.1750684576       -2.4871670495
 H         -4.6881789021        0.7733250070       -2.4651172349
 H         -6.3039475476        1.3154263668        2.0199661908
 H         -4.6693175692        1.5590891385        1.4416689984
 H         -6.3200662252       -0.6586952680        0.8641749209
 H         -6.2729056863        0.2649971667       -0.6447010410
 O         -4.0735399770       -1.4152895397        0.9498473659
 C         -2.8221664706       -2.0052300321        0.9450376306
 O         -2.6787380946       -2.9035634112        1.7980332689
 O         -1.3334518393       -0.0863611643       -1.7472407216
 C         -0.5334487830       -2.2907414864        0.0766322467
 C          0.4726680665       -1.5231502919        0.8939851139
 C          1.1553039325       -2.1292357557        1.9416005874
 C          2.0874582136       -1.4199112008        2.6797881773
 C          2.3621374580       -0.0968028344        2.3842154675
 C          1.6876600490        0.5166084329        1.3359868722
 C          0.7500475205       -0.1943591227        0.6012418531
 H          0.2286242596        0.2861536580       -0.2135287548
 N          1.9685867782        1.8603277782        1.0138311299
 S          3.5638335323        2.2267754228        0.6509319188
 O          4.3406500985        2.2010128870        1.8647362263
 O          3.5204079408        3.4881011270       -0.0525989334
 C          4.0906696453        0.9194607600       -0.4404540655
 C          3.7771814147        1.0199146160       -1.7815208532
 C          4.1185195470       -0.0208763161       -2.6297452948
 C          4.7506630093       -1.1455734483       -2.1218283615
 C          5.0567444259       -1.2317858047       -0.7726830074
 C          4.7262571895       -0.1902698364        0.0796036403
 H          4.9551411952       -0.2156364363        1.1320145774
 H          5.5482854906       -2.1074537477       -0.3808037343
 H          5.0043117629       -1.9594871334       -2.7819875858
 H          3.8818533056        0.0449346138       -3.6794312734
 H          3.2840623493        1.9103234470       -2.1378080176
 H          1.3635828405        2.2218262599        0.2896223697
 H          3.0874591761        0.4701679972        2.9452633697
 H          2.6048504871       -1.9017982857        3.4952766428
 H          0.9405796893       -3.1595348484        2.1848037737
 H         -0.7450622238       -3.2298194025        0.6110995658
 C         -0.0104036172       -2.6693738913       -1.3042080840
 C          1.1920855358       -2.0511729821       -1.9450412206
 C          1.2608678947       -3.4559893920       -1.4325913070
 H          1.2967384894       -4.2694389892       -2.1408907441
 H          1.8278786240       -3.6273462363       -0.5300684637
 H          1.1561283198       -1.8845216151       -3.0105648531
 H          1.7290366799       -1.2868016182       -1.4062353985
 H         -0.8197918565       -2.9431363005       -1.9737948378
