  62
        -98.93399938
 C         -2.2623836957       -1.1244514268        0.3471068513
 C         -2.3445140468       -0.0278530582       -0.5423964348
 C         -3.2724614491        1.0632115189       -0.1707339085
 C         -3.9383749633        0.9854877863        0.9955625801
 C         -4.9544011609        1.9426152800        1.5602659979
 C         -6.3244087243        1.8268065189        0.8733182609
 C         -6.2735502920        1.7379733735       -0.6495684677
 H         -7.2917231053        1.5594973215       -1.0052555602
 H         -5.6740293583        0.8728681069       -0.9384945952
 C         -5.7427934475        2.9829298704       -1.3564712528
 H         -6.3626508549        3.8404362008       -1.0854270829
 H         -5.8563299774        2.8178997031       -2.4309073984
 C         -4.2784152600        3.3346748914       -1.0839615472
 H         -4.1627494985        3.8188212070       -0.1179047287
 H         -3.9751033737        4.0686600589       -1.8361571447
 C         -3.3096890905        2.1626318233       -1.2049408632
 H         -2.2869600579        2.5563735530       -1.2483761147
 H         -3.4657670625        1.6670304856       -2.1699206283
 H         -6.9317443038        2.6833629893        1.1706785573
 H         -6.8129549298        0.9222283161        1.2440722013
 H         -5.0719204752        1.6867998797        2.6157923863
 H         -4.5797523494        2.9605150869        1.5069261779
 O         -3.7809427085       -0.0663081540        1.8515968515
 C         -2.9487155062       -1.1290370108        1.5625251871
 O         -2.8927012739       -1.9975292614        2.4575775471
 H          0.2235107150       -0.6407108993        1.3889145652
 C          0.6909795002       -0.9528327363        0.4614774112
 C          0.0058419139       -1.8253432619       -0.3764637856
 C          0.6169602687       -2.2221446205       -1.5577532335
 C          1.8724529909       -1.7438751339       -1.8911242043
 C          2.5428985532       -0.8646329650       -1.0617551389
 C          1.9431106474       -0.4640097872        0.1252676565
 N          2.6116486073        0.4432828463        0.9684522607
 S          4.1784750478        0.0640384644        1.4409034098
 O          4.3868831860       -1.3652944848        1.4783355425
 O          4.3808962605        0.7753827199        2.6846654677
 C          5.1995276739        0.7975448128        0.1804456760
 C          5.0755316798        2.1535115984       -0.0506750242
 C          5.8685353308        2.7413756272       -1.0231371917
 C          6.7686146535        1.9685019809       -1.7417740896
 C          6.8836051402        0.6089957800       -1.4951856748
 C          6.0926431134        0.0144455822       -0.5242642044
 H          6.1431745947       -1.0393740801       -0.3013340474
 H          7.5841139578        0.0101003483       -2.0546223423
 H          7.3839435886        2.4290174081       -2.4984809796
 H          5.7816689793        3.7982243513       -1.2177781930
 H          4.3666339972        2.7184193125        0.5314654118
 H          2.0647705372        0.7292225191        1.7677100800
 H          3.5163022479       -0.4834206459       -1.3238081818
 H          2.3324976746       -2.0555146248       -2.8164379342
 H          0.1027000467       -2.8892748709       -2.2294476166
 C         -1.3516574189       -2.3087419846        0.0742031803
 H         -1.2188425157       -2.7931183600        1.0567632302
 C         -1.9554793572       -3.3606320830       -0.8447313233
 C         -3.4409517050       -3.5278524867       -0.9567858145
 C         -2.6563425237       -3.0032861047       -2.1196203010
 H         -2.5210199866       -3.6475080168       -2.9761294921
 H         -2.7348297871       -1.9569168482       -2.3671180748
 H         -4.0655813380       -2.8400009127       -0.4050413046
 H         -3.8402916769       -4.5295567140       -1.0114760158
 H         -1.3711038214       -4.2757462171       -0.8483249545
 O         -1.6856736863        0.0563619608       -1.6102933446
