  62
        -98.93886491
 C         -1.1719865896       -1.4467987211        0.6009496304
 C         -2.0042173295       -1.2305333211       -0.5213360596
 C         -3.0717264594       -0.2185756810       -0.3648316198
 C         -3.1378813593        0.5017868392        0.7699496001
 C         -4.1473715392        1.5204932294        1.2602546999
 C         -5.3063737191        1.9557188094        0.3683347398
 C         -4.9086111090        2.8901363392       -0.7764004503
 H         -5.7557968990        2.9871118592       -1.4580819504
 H         -4.7067230788        3.8789223192       -0.3568513305
 C         -3.6719381090        2.4696151789       -1.5654709903
 H         -3.4318188889        3.2704270587       -2.2699040904
 H         -2.8264051190        2.3728744589       -0.8847845502
 C         -3.8124194492        1.1766199088       -2.3630762700
 H         -2.9001448692        1.0447366586       -2.9521065400
 H         -4.6467928592        1.2645398588       -3.0621768601
 C         -4.0181699094       -0.0941440810       -1.5266185398
 H         -5.0501741394       -0.1744134509       -1.1932311998
 H         -3.8170738295       -0.9543320012       -2.1723543397
 H         -5.8336490692        1.0824107195       -0.0046685400
 H         -6.0093955490        2.4976202297        1.0063851897
 H         -4.5612129292        1.0879732297        2.1777371500
 H         -3.5808292491        2.4032926894        1.5730329298
 O         -2.2114203693        0.3570521993        1.7648723501
 C         -1.2329924195       -0.6137578709        1.7189902403
 O         -0.4859221795       -0.6400680808        2.7180201203
 H          1.8843153305       -1.0826785013        1.5009693604
 C          2.0321649504       -1.3710097915        0.4679113705
 C          1.0725073303       -2.1610200115       -0.1537888994
 C          1.2520536603       -2.4988427817       -1.4890407793
 C          2.3714502904       -2.0619664020       -2.1774219294
 C          3.3310982405       -1.2848510820       -1.5528780095
 C          3.1526007105       -0.9336319418       -0.2212921096
 N          4.1121907806       -0.1054086118        0.4099001303
 S          4.0913469208        1.4893524581       -0.1033978600
 O          4.4254069009        1.5267194478       -1.5033812700
 O          4.9733166209        2.2064001082        0.7878661499
 C          2.4056384009        2.0152451584        0.1444289899
 C          2.0826148010        2.7111567086        1.2917393498
 C          0.7599208610        3.0536745388        1.5177465797
 C         -0.2135507290        2.6771112888        0.6063112697
 C          0.1237024309        1.9640216686       -0.5330535801
 C          1.4468281309        1.6316017984       -0.7718823001
 H          1.7418901908        1.0868987482       -1.6540020800
 H         -0.6364998791        1.6529309486       -1.2329423901
 H         -1.2437004390        2.9393485590        0.7899000197
 H          0.4886811311        3.6020810790        2.4054633796
 H          2.8710824710        2.9790268786        1.9768635797
 H          4.0331102906       -0.1171247316        1.4180490703
 H          4.1992962005       -0.9235139022       -2.0794451896
 H          2.4986238704       -2.3310246322       -3.2150392594
 H          0.5019630302       -3.0852171817       -1.9935326792
 C         -0.1408684097       -2.5650695012        0.6457120907
 H          0.1690258203       -2.6331168511        1.6976065707
 C         -0.7216110199       -3.9005038312        0.2301779709
 C          0.0316140799       -5.1531334912        0.5585897311
 C         -1.2397262400       -4.8309815409        1.2835223110
 H         -2.1209751201       -5.4156272209        1.0660536811
 H         -1.1732714900       -4.5106867708        2.3133665310
 H          0.0257127598       -5.9615468214       -0.1561743488
 H          0.9623198099       -5.0490303613        1.0959822711
 H         -1.2633680499       -3.8664866913       -0.7056107891
 O         -1.9021036396       -1.8667149713       -1.6015989195
