  62
        -98.94626584
 C         -1.6481835009       -1.0192717801        0.0796091504
 C         -2.7564221508       -0.8128172803        0.9388003506
 C         -3.4858520008        0.4459036298        0.7532087410
 C         -3.0508364909        1.3416100000       -0.1515089389
 C         -3.6657000909        2.6862162801       -0.4301503784
 C         -4.8475735311        2.6400331803       -1.4085832283
 C         -6.1366849210        2.0403278702       -0.8455488082
 H         -6.3877487209        2.5359329600        0.0927764919
 H         -6.9331067411        2.2683672204       -1.5568105981
 C         -6.0880588410        0.5210456301       -0.6308588886
 H         -7.0009466711        0.0681707303       -1.0243748886
 H         -5.2535783211        0.0993221803       -1.1959513488
 C         -5.9631846208        0.0913413998        0.8310066913
 H         -5.8992523208       -0.9993841502        0.8629408910
 H         -6.8591687107        0.3914014697        1.3789329915
 C         -4.7348433807        0.6602406996        1.5534308812
 H         -4.6178717806        0.1294797394        2.5014005411
 H         -4.8787871206        1.7201390896        1.7615854715
 H         -4.5444377612        2.0815773805       -2.2973151085
 H         -5.0555496511        3.6672099004       -1.7170473380
 H         -3.9850316908        3.1447630098        0.5059872817
 H         -2.8808499910        3.3044857002       -0.8708242284
 O         -1.9568706610        1.1245423702       -0.9278400791
 C         -1.2490956610       -0.0684461599       -0.8596227194
 O         -0.3086605012       -0.1439751397       -1.6728070196
 O         -3.1159588507       -1.6401022505        1.8174767904
 C         -0.8520601609       -2.3056655901        0.2285667800
 C          0.5319571492       -1.9267460303        0.6900376899
 C          0.7274395294       -1.5548619906        2.0178883799
 C          1.9593065394       -1.1030692907        2.4518799399
 C          3.0172651293       -0.9879835505        1.5659174097
 C          2.8265634391       -1.3450498502        0.2382605797
 C          1.5989125390       -1.8340314001       -0.1883744703
 H          1.4697275889       -2.1021606798       -1.2245567003
 N          3.8761205190       -1.1811116200       -0.6825711304
 S          4.7398123190        0.2493021900       -0.6090033202
 O          5.1873861688        0.4960101003       -1.9626626402
 O          5.7885786491        0.1218171598        0.3742967396
 C          3.5992552691        1.5225583499       -0.0863419497
 C          3.9992126592        2.4006265796        0.9016567804
 C          3.1319886893        3.4030302896        1.3042270008
 C          1.8793849692        3.5073307397        0.7191891810
 C          1.4928546591        2.6179362600       -0.2708302192
 C          2.3588610090        1.6184157601       -0.6848175995
 H          2.0500191989        0.9183147102       -1.4448952597
 H          0.5153823190        2.6790839401       -0.7236797790
 H          1.1994551593        4.2824834297        1.0362007813
 H          3.4322301594        4.0951711294        2.0744245709
 H          4.9767562693        2.2751568795        1.3385445302
 H          3.6109977088       -1.3887770597       -1.6346869405
 H          3.9813705193       -0.6222439806        1.8810311197
 H          2.0969893896       -0.8249745510        3.4855841199
 H         -0.1072551905       -1.6118989707        2.7025758300
 H         -1.3474331408       -2.8654604503        1.0329737199
 C         -0.8813400211       -3.1366668698       -1.0364126502
 C         -0.4547863911       -4.5725036198       -0.9849088606
 C         -1.9003788211       -4.2260791198       -1.1736297804
 H         -2.3491779213       -4.3922077895       -2.1416140503
 H         -2.5772310410       -4.3841412900       -0.3468993603
 H          0.0900733588       -4.9805265196       -1.8226517508
 H         -0.1474347010       -4.9654948701       -0.0276737008
 H         -0.6463398012       -2.5688137196       -1.9289476701
