  62
        -98.94058884
 C         -1.7403655099       -1.1517168109       -0.6695251685
 C         -1.8409039300       -0.3308861398        0.4815573307
 C         -3.2097648000       -0.0268691193        0.9256495102
 C         -4.2625604600       -0.5651013298        0.2860745706
 C         -5.7122039100       -0.3596796594        0.6325685303
 C         -6.3174778499        0.9217488101        0.0430429190
 C         -5.8591422998        2.2225056607        0.7040048677
 H         -5.9978044700        2.1483514518        1.7830640478
 H         -6.5202863097        3.0135505504        0.3444293969
 C         -4.4074539698        2.6141969803        0.3943646575
 H         -4.3645350097        3.6745037900        0.1355762864
 H         -4.0588567497        2.0581239994       -0.4789972219
 C         -3.4296820399        2.3891296514        1.5478649978
 H         -3.6925703500        3.0419168022        2.3831153471
 H         -2.4284947099        2.6643174310        1.2067662476
 C         -3.3760561801        0.9426478719        2.0566911992
 H         -4.2744485201        0.7108396725        2.6282810294
 H         -2.5069806001        0.8396639425        2.7109678294
 H         -7.4023065399        0.8478992803        0.1491233689
 H         -6.0906366898        0.9558270090       -1.0251770610
 H         -5.8339782101       -0.3563963383        1.7161103903
 H         -6.2537547000       -1.2158804597        0.2244711711
 O         -4.1206112699       -1.4049572609       -0.7744888485
 C         -2.8671622199       -1.7060106815       -1.2822060581
 O         -2.8867184899       -2.4795325824       -2.2610814473
 O         -0.8574210500        0.1307339708        1.1130792603
 C         -0.3941838099       -1.5272396916       -1.2645354880
 C          0.5556575700       -1.9442569006       -0.1697098475
 C          0.2353967698       -3.0576042598        0.6033734836
 C          1.0692302397       -3.4720439589        1.6230511241
 C          2.2468867397       -2.7936373587        1.8847542635
 C          2.5746594298       -1.6811214695        1.1200171124
 C          1.7307217600       -1.2629715304        0.1004209020
 H          1.9931829501       -0.3885335510       -0.4699605289
 N          3.7405466499       -0.9526089093        1.3847571418
 S          4.5631443600       -0.1515418805        0.1777453811
 O          4.5587663101       -0.8959508318       -1.0610851181
 O          5.8693091000        0.1124428699        0.7445584810
 C          3.7069832802        1.3952137893       -0.0369179805
 C          3.0588612201        1.9757692904        1.0344510989
 C          2.4327449602        3.1985658203        0.8534937076
 C          2.4730989404        3.8223405091       -0.3837379730
 C          3.1334260804        3.2290249980       -1.4486433324
 C          3.7562544103        2.0030153381       -1.2761121211
 H          4.2680826604        1.4997311072       -2.0811442405
 H          3.1620232506        3.7143436970       -2.4114592428
 H          1.9835049405        4.7736110589       -0.5208696340
 H          1.9115281302        3.6577922411        1.6779505971
 H          3.0353196900        1.4635255114        1.9815939594
 H          4.3507701798       -1.3350669486        2.0907377823
 H          2.9010744596       -3.1159994179        2.6805654139
 H          0.8049545595       -4.3337903983        2.2176503049
 H         -0.6852924602       -3.5876818800        0.3978791640
 H         -0.5946421399       -2.4147994122       -1.8878961771
 C          0.1889496003       -0.4694342226       -2.1900251090
 C         -0.7056173196        0.4071038367       -3.0134594100
 C          0.0955093203        0.9960110977       -1.8934706505
 H          0.9414020704        1.6212855774       -2.1393131510
 H         -0.4145298097        1.2916882587       -0.9908959808
 H         -0.4141150495        0.6268143856       -4.0294711301
 H         -1.7720564796        0.2951383069       -2.8804098099
 H          1.1016305603       -0.8123721231       -2.6695533986
