  62
        -98.94526846
 C         -1.4660684889       -1.2771104175       -0.4352237755
 C         -2.7983545090       -1.3757818617        0.0457280500
 C         -3.7665187676       -0.4270337396       -0.5117172153
 C         -3.3667005952        0.4627844474       -1.4376605902
 C         -4.2341516417        1.4914758895       -2.1110610887
 C         -4.4135546566        2.7809709666       -1.2982590127
 C         -5.3209661211        2.6568810217       -0.0734405823
 H         -5.5354258580        3.6710146460        0.2695428278
 H         -6.2685890343        2.2054753772       -0.3691483472
 C         -4.7105012012        1.8625241979        1.0898851755
 H         -3.6286626624        1.7870921132        0.9522827589
 H         -4.8743374585        2.4029755272        2.0250861769
 C         -5.2872407670        0.4582377290        1.2712471859
 H         -4.7553478613       -0.0252048136        2.0946062230
 H         -6.3421522056        0.5285915476        1.5455770717
 C         -5.1623452174       -0.4405374925        0.0343211723
 H         -5.8729642057       -0.1290391088       -0.7308895263
 H         -5.3927695624       -1.4664838437        0.3316198677
 H         -3.4281854743        3.1379631882       -0.9878012230
 H         -4.8425527087        3.5309903611       -1.9669833826
 H         -3.7430027373        1.7442260350       -3.0532110593
 H         -5.2109486953        1.0601328727       -2.3321873513
 O         -2.0897844804        0.5099281691       -1.8955861078
 C         -1.1033598278       -0.3319277401       -1.3954225519
 O          0.0129793212       -0.1409772409       -1.9133973198
 O         -3.1634942747       -2.2289959454        0.8982661773
 C         -0.4518675173       -2.2226116210        0.1900810291
 C          0.2211957124       -1.5183572324        1.3453493865
 C         -0.1514219117       -1.8115718141        2.6525937310
 C          0.4311888076       -1.1453956143        3.7155264732
 C          1.3906249334       -0.1752232599        3.4930770535
 C          1.7688119722        0.1292931632        2.1887319778
 C          1.1902468683       -0.5485735870        1.1251663727
 H          1.4634173641       -0.2889383569        0.1167610858
 N          2.7580862977        1.0898701943        1.9514938786
 S          2.8010191857        2.0193889045        0.5595880581
 O          3.6145138670        3.1588265770        0.9360359185
 O          1.4758536742        2.3250352235        0.0761341883
 C          3.7322090432        1.0166396322       -0.5782996634
 C          5.0440578786        0.7446729072       -0.2387211578
 C          5.8077517541       -0.0416177627       -1.0845685931
 C          5.2492924776       -0.5403272775       -2.2524004318
 C          3.9339536437       -0.2532329517       -2.5804207378
 C          3.1626570124        0.5352982089       -1.7387687792
 H          2.1297463357        0.7565889098       -1.9605470338
 H          3.4941102461       -0.6412282699       -3.4856126976
 H          5.8413135131       -1.1562821080       -2.9110156362
 H          6.8317464840       -0.2653678907       -0.8323078284
 H          5.4395931643        1.1597358167        0.6732716775
 H          3.0657204011        1.6017510312        2.7646747978
 H          1.8433384288        0.3501109693        4.3203681219
 H          0.1317449372       -1.3791686286        4.7260736187
 H         -0.9192490741       -2.5512618628        2.8266151384
 H         -1.0503349345       -3.0435069765        0.6089836913
 C          0.5482965662       -2.8090922507       -0.7834306247
 C          1.3027697902       -4.0411129244       -0.3850438897
 C          0.2455410420       -4.1190972275       -1.4442520559
 H          0.5491571408       -4.2586003019       -2.4707706096
 H         -0.6899400789       -4.6001365870       -1.1977967835
 H          2.3364347360       -4.1285470666       -0.6817074528
 H          1.0832905264       -4.4698882218        0.5810963199
 H          1.0704684047       -2.0690891537       -1.3742932743
