  62
        -98.93758033
 C         -2.2476227517        0.7958707608       -0.0562565507
 C         -3.5718270075        1.2205739540       -0.3382452642
 C         -4.6459518376        0.4870057992        0.3393390080
 C         -4.3388703251       -0.5290101233        1.1655533076
 C         -5.3175908429       -1.3558111378        1.9547496118
 C         -5.9376360921       -2.5149037512        1.1623202247
 C         -6.9630436480       -2.1045858372        0.1046365035
 H         -7.4719631174       -3.0150672270       -0.2178793912
 H         -7.7125609488       -1.4562729991        0.5594785694
 C         -6.3602876009       -1.4136741852       -1.1265637569
 H         -5.2852958958       -1.6057891468       -1.1615086758
 H         -6.7914323743       -1.8438682677       -2.0333100053
 C         -6.5953912955        0.0957200062       -1.1853930814
 H         -6.0965442882        0.4862365036       -2.0759712093
 H         -7.6645007937        0.2965932168       -1.2828346920
 C         -6.0631152025        0.8656965168        0.0303428464
 H         -6.7007059108        0.6894335640        0.8963824524
 H         -6.0782433579        1.9324521965       -0.2059255663
 H         -5.1331668354       -3.0835125375        0.6899956758
 H         -6.4316735855       -3.1726836223        1.8811196572
 H         -6.1089710196       -0.7140979146        2.3432052900
 H         -4.7620895189       -1.7730376867        2.7974697461
 O         -3.0579060567       -0.9215149036        1.3944532700
 C         -1.9824882927       -0.2925008739        0.7758953273
 O         -0.8800146124       -0.8014767827        1.0538577930
 O         -3.8420063407        2.1684530577       -1.1222241119
 C         -1.1144694112        1.5376806776       -0.7415209393
 C         -0.1142379315        0.5640988038       -1.3119292377
 C         -0.5377573873       -0.3268627887       -2.2948476944
 C          0.3352413250       -1.2525362353       -2.8309319474
 C          1.6493967346       -1.3055923075       -2.4015343396
 C          2.0870553131       -0.4119555657       -1.4310134363
 C          1.2072508960        0.5193424631       -0.8970809572
 H          1.5613165576        1.1819867403       -0.1268124849
 N          3.4364980794       -0.4191500999       -1.0315948674
 S          3.9033940175       -0.0696661454        0.5503874822
 O          3.3628135323       -1.0401613122        1.4762248003
 O          3.6315721727        1.3165685803        0.8329511394
 C          5.6643508646       -0.3061475268        0.3820066173
 C          6.4045910667        0.6856489319       -0.2332561305
 C          7.7687762706        0.5027642258       -0.3928663366
 C          8.3676640428       -0.6626313480        0.0624309118
 C          7.6127423916       -1.6481522191        0.6800070376
 C          6.2472501178       -1.4715926283        0.8414130464
 H          5.6215028311       -2.2062982697        1.3224726641
 H          8.0811472283       -2.5515334789        1.0362181291
 H          9.4298644870       -0.8023673620       -0.0621504156
 H          8.3594944062        1.2680411727       -0.8699693565
 H          5.8974407069        1.5773525480       -0.5625167939
 H          3.9196376666       -1.2499107067       -1.3477597186
 H          2.3305003759       -2.0348122675       -2.8138518111
 H         -0.0096097598       -1.9442603280       -3.5850558633
 H         -1.5687102341       -0.2922860147       -2.6214038168
 H         -1.5996895749        2.0585045216       -1.5847670476
 C         -0.4718983727        2.6148786459        0.1191619677
 C         -1.2408623742        3.3188642974        1.1955492079
 C         -0.1246609281        2.3882441775        1.5588892486
 H          0.8009708589        2.8025380656        1.9325860949
 H         -0.3672831631        1.4274782806        1.9866697063
 H         -1.0893263636        4.3801023760        1.3229800934
 H         -2.2546264802        2.9952032726        1.3817938573
 H          0.2212582191        3.2266624225       -0.4510310044
