  62
        -98.94264361
 C         -1.2040675260       -1.5547837276        0.5402898517
 C         -2.1772251767       -1.3014800433       -0.4534528337
 C         -3.2232783996       -0.3216276703       -0.1082298358
 C         -3.1828374944        0.2847069250        1.0908468951
 C         -4.0786134439        1.3832232847        1.5916934848
 C         -3.4518673434        2.7568870312        1.2927413927
 C         -3.8111633490        3.3437122213       -0.0711793049
 H         -4.8643977037        3.6339137604       -0.0743512812
 H         -3.2165835240        4.2516360531       -0.1971556119
 C         -3.5493909727        2.4202824301       -1.2637536192
 H         -3.4746118108        3.0425585227       -2.1580931645
 H         -2.5820383976        1.9287500232       -1.1357995899
 C         -4.6570514211        1.3770005233       -1.4746887169
 H         -5.5238866766        1.6556025570       -0.8753005278
 H         -4.9801756215        1.4018150691       -2.5174778468
 C         -4.2619643843       -0.0753234943       -1.1680657662
 H         -5.1630988945       -0.6423254413       -0.9113289624
 H         -3.8466647940       -0.5356173709       -2.0702369445
 H         -2.3644165469        2.6596325539        1.3663229112
 H         -3.7702002797        3.4646472289        2.0613141581
 H         -5.0722391507        1.3016221720        1.1610076364
 H         -4.1510956444        1.2607053051        2.6743949056
 O         -2.2299424583        0.0072497573        2.0223964749
 C         -1.2075720249       -0.8850952617        1.7626360229
 O         -0.3718902994       -0.9972001373        2.6842461953
 H          0.4288238205        0.1152217080       -0.1907588503
 C          0.9480537594       -0.4938528554       -0.9133106246
 C          0.8040426199       -1.8730627167       -0.8731098098
 C          1.4601370916       -2.6323551669       -1.8339037542
 C          2.2238754171       -2.0133713291       -2.8090919047
 C          2.3671930467       -0.6375218472       -2.8403383766
 C          1.7173363918        0.1301052979       -1.8806524642
 N          1.8153883717        1.5291387391       -1.8654881750
 S          1.8176822039        2.3472201857       -0.4068000387
 O          0.5012839064        2.3488859384        0.1802339569
 O          2.3611438891        3.6483039314       -0.7352509840
 C          2.9844480849        1.4519949228        0.6034986712
 C          2.5664951356        0.6527447225        1.6471334649
 C          3.5148313171       -0.0673079099        2.3583824397
 C          4.8549311339        0.0227367840        2.0184657272
 C          5.2607080523        0.8382533992        0.9723442000
 C          4.3186272761        1.5566590599        0.2562263263
 H          4.5940495589        2.2107811330       -0.5550245954
 H          6.3043587331        0.9124717649        0.7128790487
 H          5.5857247356       -0.5433739324        2.5740950592
 H          3.1879777615       -0.6973746391        3.1704052275
 H          1.5191385451        0.5892318622        1.8993544315
 H          2.4683603457        1.9248050572       -2.5250327280
 H          2.9635269083       -0.1609925736       -3.6028829950
 H          2.7209823661       -2.6134947337       -3.5559244207
 H          1.3659902267       -3.7059441592       -1.8245829802
 C         -0.0301153317       -2.4674153106        0.2389340533
 H          0.5889276144       -2.4738913918        1.1493093908
 C         -0.4926191670       -3.8811369440       -0.0447792986
 C          0.3684150372       -5.0481775878        0.3322750859
 C         -0.8804691186       -4.7574651636        1.1071701178
 H         -1.7284439400       -5.4155741176        0.9919532082
 H         -0.7835570205       -4.3415621704        2.0998465380
 H          0.3769455806       -5.9124640185       -0.3145985232
 H          1.3156471136       -4.8400616337        0.8065417460
 H         -1.0865616742       -3.9501343867       -0.9483429767
 O         -2.1670847795       -1.8519717957       -1.5862162519
