  62
        -98.94367426
 C         -1.8459929005       -0.8553126119        0.4063201959
 C         -3.1687743605       -0.9535545245        0.8985987453
 C         -4.2309551205       -0.5337322498       -0.0252830226
 C         -3.8999375805       -0.1086607834       -1.2585048104
 C         -4.8741190905        0.4039819317       -2.2784053078
 C         -5.0448871605        1.9253384711       -2.1643076900
 C         -5.3121256806        2.4115761738       -0.7397797875
 H         -4.4271370106        2.2244341307       -0.1270477784
 H         -5.4463705107        3.4945727140       -0.7852688019
 C         -6.5363610506        1.7720999303       -0.0697165308
 H         -7.1129671107        2.5557441377        0.4263524932
 H         -7.1819896106        1.3256552742       -0.8268702031
 C         -6.2031193906        0.7238732449        0.9937024938
 H         -5.4845832106        1.1393954713        1.7050506460
 H         -7.1182827206        0.4995887420        1.5482186326
 C         -5.6481759605       -0.6065960824        0.4691970670
 H         -6.3083229204       -1.0001698585       -0.3064017550
 H         -5.6386630105       -1.3138165567        1.3038725234
 H         -4.1310463206        2.4046651130       -2.5232104675
 H         -5.8664583405        2.2308319444       -2.8147234584
 H         -4.4909655204        0.1642943769       -3.2716899390
 H         -5.8331380304       -0.0914163390       -2.1402950404
 O         -2.6196057704       -0.0499732011       -1.7038828100
 C         -1.5588181005       -0.4071584052       -0.8832268218
 O         -0.4389268004       -0.2859695025       -1.4105571112
 O         -3.4464909405       -1.3664752804        2.0572753532
 C         -0.6942943805       -1.2515962064        1.3107122039
 C          0.2717005395       -0.1050301073        1.4820781498
 C         -0.2215706806        1.1866454819        1.6462437064
 C          0.6334291993        2.2630326712        1.7846144319
 C          2.0048650793        2.0762087913        1.7775942410
 C          2.5086172594        0.7917004721        1.6343446444
 C          1.6462775895       -0.2896644672        1.4922802289
 H          2.0581671395       -1.2806779966        1.3789874238
 N          3.9081504294        0.6033146021        1.6373379635
 S          4.7678847194        1.1808583489        0.3197926765
 O          6.1614323394        0.9595791874        0.6322519354
 O          4.3743678293        2.5426722902        0.0677293335
 C          4.2877207895        0.1231551159       -1.0345327489
 C          5.1837631796       -0.8160637017       -1.5075691237
 C          4.7814016597       -1.6782235465       -2.5144748782
 C          3.4896211697       -1.6010823340       -3.0145383478
 C          2.6000356996       -0.6571657166       -2.5250049430
 C          3.0023221795        0.2187265783       -1.5290593285
 H          2.3212929695        0.9567698263       -1.1371614547
 H          1.5835804696       -0.6018783248       -2.8809462127
 H          3.1716272597       -2.2811673501       -3.7894254313
 H          5.4707991197       -2.4120030345       -2.9004675219
 H          6.1735711996       -0.8469338338       -1.0812961938
 H          4.1820812795       -0.3544812587        1.8099486086
 H          2.6871315193        2.9057566309        1.8628068553
 H          0.2299892992        3.2579533306        1.8999689470
 H         -1.2924199506        1.3392965418        1.6532872371
 H         -1.1512890505       -1.4645226715        2.2891002028
 C         -0.0379353204       -2.5165693438        0.7953950874
 C          0.5734202796       -3.4999606786        1.7475921324
 C         -0.7096389203       -3.8317499551        1.0484502706
 H         -0.6966991503       -4.5771780411        0.2676820768
 H         -1.6250521803       -3.8167851181        1.6218663707
 H          1.4683777397       -4.0233868170        1.4455477197
 H          0.5291726896       -3.2715883040        2.8019472135
 H          0.4359229096       -2.3734552388       -0.1697368519
