  62
        -98.93652508
 C         -1.2190430291       -0.5824846604        0.5882052304
 C         -2.0621125691       -0.6166465600       -0.5488554996
 C         -3.0713134292        0.4489227899       -0.6187987092
 C         -3.0936380793        1.4158540296        0.3157018411
 C         -4.0448633494        2.5810852395        0.3618246916
 C         -5.3971113393        2.2587761491        1.0129618216
 C         -6.3311171793        1.3843513293        0.1752062413
 H         -7.3135799993        1.4196835691        0.6501472413
 H         -6.4348381194        1.8171414597       -0.8202400086
 C         -5.8911476692       -0.0817039206        0.0584327608
 H         -5.1560702291       -0.3038296608        0.8353513206
 H         -6.7494375291       -0.7342551407        0.2331643306
 C         -5.3027321492       -0.4606309601       -1.3006832194
 H         -4.9909132591       -1.5071936000       -1.2594897998
 H         -6.0708668392       -0.3672215498       -2.0714396493
 C         -4.0877279993        0.3784750102       -1.7181582292
 H         -3.6131511293       -0.1047941795       -2.5757398194
 H         -4.4029676394        1.3797171903       -2.0115925788
 H         -5.2141576492        1.7783250688        1.9769355714
 H         -5.8995298494        3.2095151290        1.2058215519
 H         -3.5534780894        3.3592016793        0.9503950618
 H         -4.2057415794        2.9619642698       -0.6472954983
 O         -2.2095019092        1.4570505893        1.3491123811
 C         -1.2637257291        0.4584753393        1.5143037407
 O         -0.5243770091        0.6090919690        2.5103420007
 O         -1.9795988591       -1.4799390397       -1.4578561699
 C         -0.1655178890       -1.6642184203        0.7923970899
 C          0.7260810910       -1.6906458598       -0.4283630201
 C          1.0799948710       -2.7737721995       -1.2214896905
 C          1.9435132910       -2.6090642291       -2.2937195805
 C          2.4981375808       -1.3799246989       -2.5921714401
 C          2.1512256908       -0.2844679792       -1.8089307697
 C          1.2729809208       -0.4510725897       -0.7541379097
 H          0.9861920808        0.4158791901       -0.1789838594
 N          2.6811025807        0.9897898209       -2.0591782393
 S          2.9483503306        2.0395136005       -0.7866502989
 O          1.7068476506        2.6290121302       -0.3502017887
 O          3.9369837505        2.9667667108       -1.2970345886
 C          3.6777441308        1.0358584501        0.4965823107
 C          3.0026398109        0.7814505096        1.6726383306
 C          3.5963599110       -0.0407340006        2.6185151403
 C          4.8455171610       -0.5893805304        2.3759575801
 C          5.5156833409       -0.3156550000        1.1930023101
 C          4.9273319708        0.5023316203        0.2433402605
 H          5.4209830407        0.7470422707       -0.6830251395
 H          6.4897063810       -0.7389728798        1.0082511799
 H          5.2983736811       -1.2316801507        3.1145893898
 H          3.0683375710       -0.2492605610        3.5355607503
 H          2.0260446808        1.2110706895        1.8387929208
 H          3.4149572706        1.0247749912       -2.7507082093
 H          3.1762340508       -1.2618329786       -3.4229956201
 H          2.1940323010       -3.4644331888       -2.9027534508
 H          0.6802586611       -3.7542241596       -1.0397628408
 H          0.4677182310       -1.2954822106        1.6177365600
 C         -0.8553866988       -2.9105487406        1.3257480895
 C         -1.4587081088       -3.9984462903        0.4948167892
 C         -0.2657693687       -4.2889488205        1.3579447290
 H         -0.4244835886       -4.8760592609        2.2506848088
 H          0.6955041013       -4.4531056003        0.9005064789
 H         -2.4183956487       -4.3882271705        0.8032194391
 H         -1.3533734188       -3.9320631100       -0.5753326808
 H         -1.4265680588       -2.6324146509        2.2101640897
