  62
        -98.94491044
 C          2.5637721401        0.1017420965        0.0346591392
 C          2.3844205324       -0.8976255662        1.0192620669
 C          2.1491851448       -2.2587627353        0.5224198124
 C          2.1264937010       -2.4791375262       -0.8046662416
 C          1.9064590348       -3.8172555428       -1.4486607281
 C          0.4274885668       -4.0645450454       -1.7712900962
 C         -0.5224847747       -3.7958550486       -0.6038176843
 H         -0.5499954373       -2.7232323595       -0.3973225142
 H         -1.5255342523       -4.0751991008       -0.9350307411
 C         -0.1863113998       -4.5577132354        0.6853619621
 H         -1.1146349371       -4.9480777142        1.1079595300
 H          0.4525192594       -5.4122924041        0.4574873036
 C          0.4711451315       -3.7082750410        1.7753332695
 H          0.4185257246       -4.2618394092        2.7171894205
 H         -0.0977112291       -2.7826800191        1.9068975736
 C          1.9429636727       -3.3427308262        1.5419173909
 H          2.3429641610       -2.9493225693        2.4813173805
 H          2.5079718541       -4.2390490359        1.2764506033
 H          0.3189585271       -5.1005407118       -2.0993474814
 H          0.1391065063       -3.4115651989       -2.5980263597
 H          2.2777699041       -4.5947972041       -0.7834729548
 H          2.4786440943       -3.8435539098       -2.3780450358
 O          2.2952024832       -1.4927587962       -1.7218907117
 C          2.4810299237       -0.1757839875       -1.3294448233
 O          2.5732189110        0.6327830932       -2.2732974317
 O          2.4314937945       -0.6621125321        2.2591909539
 C          2.7649905367        1.5392930726        0.4749484239
 C          1.6052324788        2.3954814496        0.0246564089
 C          1.7455019005        3.7146110710       -0.3868617206
 C          0.6340351291        4.4505728607       -0.7619691907
 C         -0.6303212190        3.8927457301       -0.7405859922
 C         -0.7806596591        2.5693750459       -0.3363140359
 C          0.3307255669        1.8448021780        0.0577810705
 H          0.2033413633        0.8252932878        0.3905308135
 N         -2.0430418627        1.9551248348       -0.3618841945
 S         -2.3154368672        0.5006968512        0.4353273159
 O         -2.0404058520        0.6359813053        1.8500131378
 O         -1.6198163966       -0.5518987593       -0.2597018850
 C         -4.0712554915        0.3429642828        0.1726922719
 C         -4.5188789139       -0.2249228203       -1.0047867372
 C         -5.8835627186       -0.3158168447       -1.2286675514
 C         -6.7730139988        0.1611696219       -0.2772535058
 C         -6.3092416317        0.7257858294        0.9014568089
 C         -4.9455769890        0.8195962461        1.1311964367
 H         -4.5388672487        1.2397543969        2.0370387893
 H         -7.0029535585        1.0919531157        1.6409651148
 H         -7.8344550816        0.0894844467       -0.4543887979
 H         -6.2472469380       -0.7576090230       -2.1423016058
 H         -3.7888672675       -0.5879093741       -1.7097668374
 H         -2.8161113400        2.5996197403       -0.2805929495
 H         -1.4929649191        4.4665802513       -1.0418108330
 H          0.7559186731        5.4756387336       -1.0776523885
 H          2.7239375273        4.1656858848       -0.4149612989
 H          2.7523250578        1.5101155090        1.5761575913
 C          4.1108341644        2.0619297130        0.0165990008
 C          4.8622170542        3.0578215498        0.8472964833
 C          5.3405719193        1.6406431962        0.7622355509
 H          6.2371480115        1.4280468682        0.1998133954
 H          5.2015736245        0.9997729022        1.6209697026
 H          5.4360228332        3.8207931720        0.3431909345
 H          4.4083371445        3.3821843352        1.7716653713
 H          4.1799314993        2.1350038000       -1.0628001995
