  62
        -98.94682757
 C         -1.9870764002       -1.1630085793       -0.5291900895
 C         -1.4844862098       -0.0060708498       -1.1716941801
 C         -2.2815381494        1.2198524806       -1.0117023706
 C         -3.4092664193        1.1909375813       -0.2810773505
 C         -4.2803623289        2.3778423318        0.0096525790
 C         -3.8619041186        3.0716591422        1.3131171086
 C         -2.3634959585        3.3609802417        1.4113294384
 H         -2.1956400682        3.8887499621        2.3532198682
 H         -1.8114082288        2.4195290215        1.4748412188
 C         -1.7971990382        4.1930185410        0.2524133880
 H         -2.6072353580        4.7047457910       -0.2698742422
 H         -1.1384424979        4.9602228309        0.6649595376
 C         -0.9681787285        3.3872090302       -0.7495873417
 H         -0.2363389687        2.7845925902       -0.2049192614
 H         -0.4154579483        4.0903594497       -1.3791808620
 C         -1.7686840389        2.4650488601       -1.6787342112
 H         -2.5884767787        3.0236139002       -2.1358316714
 H         -1.0978560691        2.1276549494       -2.4741426311
 H         -4.4192777282        4.0064686725        1.4000751782
 H         -4.1408166588        2.4302143127        2.1524639989
 H         -4.2209942786        3.0779476714       -0.8214007914
 H         -5.3106459590        2.0312434722        0.1086348692
 O         -3.8687651197        0.0619202118        0.3168140500
 C         -3.1665084402       -1.1262173685        0.2211798805
 O         -3.6955856505       -2.0792197880        0.8297979110
 H          0.8573354299       -0.9004143602       -0.1179343797
 C          0.7564878796       -1.6442945698        0.6541234706
 C         -0.2792066207       -2.5668326895        0.5877252711
 C         -0.3958128610       -3.5194984589        1.5924620915
 C          0.4958921190       -3.5369639288        2.6501010815
 C          1.5009346694       -2.5918164191        2.7342685610
 C          1.6270844797       -1.6327309596        1.7334970806
 N          2.6393263800       -0.6676436400        1.8061781301
 S          2.4120589506        0.9201592699        1.3055735094
 O          3.1720316410        1.7049503200        2.2592514290
 O          1.0132791007        1.2477297703        1.1871303193
 C          3.2625597806        0.9758177088       -0.2575374007
 C          2.5733435705        0.9861263885       -1.4518629507
 C          3.2946259405        1.0064105477       -2.6370652807
 C          4.6797161805        1.0157565172       -2.6092262608
 C          5.3575755705        1.0072679975       -1.3988285908
 C          4.6445869006        0.9872338483       -0.2124421108
 H          5.1296330406        0.9939035986        0.7495816592
 H          6.4354845605        1.0155063671       -1.3780761009
 H          5.2330868005        1.0303409365       -3.5351227708
 H          2.7617222105        1.0101532775       -3.5746228507
 H          1.4942551705        0.9646169089       -1.4559830606
 H          3.1877291401       -0.7022821298        2.6528834601
 H          2.1822969594       -2.5878697190        3.5718660810
 H          0.3960022987       -4.2811388184        3.4258264419
 H         -1.2049866413       -4.2339053587        1.5519899819
 C         -1.2822221808       -2.5122337596       -0.5410623789
 H         -2.0627178410       -3.2554435392       -0.3262162585
 C         -0.6370395709       -2.8696289905       -1.8646411187
 C         -0.4012714915       -4.3137991507       -2.1859178781
 C         -1.4571651412       -3.5445859306       -2.9206063984
 H         -1.2839819812       -3.2806621112       -3.9528861885
 H         -2.4926232313       -3.7526928101       -2.6920200983
 H         -0.7219449817       -5.0475226302       -1.4617925077
 H          0.5006572284       -4.5819247613       -2.7140569580
 H          0.1023539193       -2.1526616809       -2.1937584191
 O         -0.4317874298        0.0285554295       -1.8618153901
