  62
        -98.93511140
 C         -1.8878439971       -1.2798254287       -0.1667765301
 C         -2.9941948747       -1.2438755342        0.7216843734
 C         -4.2078157542       -0.5666678321        0.2434693555
 C         -4.2120714800       -0.0322938789       -0.9907718367
 C         -5.3379355000        0.7541999799       -1.5996365511
 C         -5.3551094816        2.1836969061       -1.0215297191
 C         -6.5907844228        2.5097120604       -0.1822890360
 H         -6.3919747480        3.4473095008        0.3413428145
 H         -7.4384890983        2.6787207469       -0.8497002347
 C         -7.0041486899        1.4459807387        0.8393211009
 H         -7.7126987787        1.9199352732        1.5219390925
 H         -7.5467361751        0.6445681611        0.3356090057
 C         -5.8665283174        0.8271994400        1.6620263047
 H         -5.0135112678        1.5045879525        1.7106912069
 H         -6.2226130713        0.6918684514        2.6853320172
 C         -5.3945227583       -0.5524778238        1.1666378564
 H         -6.2305826078       -1.0758245175        0.6942484013
 H         -5.0820200882       -1.1454982174        2.0312430597
 H         -4.4563857340        2.3193829837       -0.4158263226
 H         -5.2953862037        2.9068234359       -1.8364725258
 H         -5.1700422119        0.7821543518       -2.6765279132
 H         -6.2833992914        0.2519131249       -1.4071381389
 O         -3.1360101207       -0.0842779785       -1.8149478436
 C         -1.9483956325       -0.6986366049       -1.4334593944
 O         -1.0615902117       -0.6433578231       -2.3061775045
 O         -2.9680037363       -1.7695229946        1.8668904301
 C         -0.6461560336       -2.0021135825        0.3275742728
 C          0.3645915533       -1.0480259919        0.9103659605
 C          0.9211001989       -1.2759768958        2.1635146449
 C          1.8609569536       -0.4048495226        2.6874663196
 C          2.2692111286        0.7055560561        1.9711382275
 C          1.7219881873        0.9397634341        0.7156727182
 C          0.7776812476        0.0671604272        0.1938712486
 H          0.3587175868        0.2532260669       -0.7840604697
 N          2.1420255080        2.0558520442       -0.0297511361
 S          3.7928714967        2.3108254264       -0.1569524295
 O          4.2667829747        2.9778825594        1.0304557257
 O          3.9764154407        3.0272224025       -1.3990280100
 C          4.5066036594        0.6789103075       -0.2568995359
 C          4.1862123749       -0.1037343410       -1.3486180371
 C          4.6922843077       -1.3914503663       -1.4218297538
 C          5.5026659107       -1.8730964635       -0.4051168515
 C          5.8198398530       -1.0729363059        0.6813313762
 C          5.3170508307        0.2159822003        0.7596640854
 H          5.5378351771        0.8713884352        1.5861413386
 H          6.4526058438       -1.4492541536        1.4687897159
 H          5.8876524121       -2.8787940464       -0.4626261937
 H          4.4444606105       -2.0153077440       -2.2654478081
 H          3.5537891497        0.3007490060       -2.1235882543
 H          1.6932845378        2.1275575480       -0.9314397450
 H          2.9941824854        1.3991407885        2.3650378699
 H          2.2796400446       -0.5911411391        3.6643792460
 H          0.6014135464       -2.1357411140        2.7335906990
 H         -1.0096399492       -2.6370427594        1.1507626315
 C         -0.0437583408       -2.9291344697       -0.7208184101
 C          1.2432818733       -2.6591275644       -1.4342363334
 C          1.1776959775       -3.7389642805       -0.3991489417
 H          1.2130689452       -4.7694471001       -0.7178737612
 H          1.6622876047       -3.5485080376        0.5464580600
 H          1.3003790195       -2.9339044649       -2.4763861948
 H          1.7823549384       -1.7570565402       -1.1927153561
 H         -0.8158303672       -3.4240349481       -1.3021914097
