  62
        -98.93856945
 C          1.9308559702        1.1561458210       -0.0990515600
 C          2.3929153403       -0.0332877189       -0.7071317799
 C          3.8467734103       -0.2786121489       -0.6487640597
 C          4.6459439402        0.6135970112       -0.0346811896
 C          6.1495067902        0.6496453212        0.1460591606
 C          7.0005197203       -0.5855682187       -0.1362133393
 C          6.7888167002       -1.7450633787        0.8372618207
 H          7.3562737703       -2.6045596587        0.4739451507
 H          7.2010691700       -1.4611105587        1.8087566607
 C          5.3381698702       -2.1657026588        1.0598795605
 H          4.7796088701       -1.3391843988        1.5038147004
 H          5.3347949901       -2.9829007988        1.7862981405
 C          4.5984750204       -2.6501531088       -0.1853437096
 H          3.6341024303       -3.0513820589        0.1386939802
 H          5.1581099205       -3.4621754488       -0.6538643596
 C          4.3158538204       -1.5736007888       -1.2466905397
 H          5.1790716005       -1.4135145588       -1.8881196796
 H          3.4983866606       -1.9315126589       -1.8797944698
 H          6.8563857404       -0.9152647987       -1.1608908393
 H          8.0439983602       -0.2704069987       -0.0500277792
 H          6.5043212002        1.4668091313       -0.4916772594
 H          6.3176048700        0.9715321012        1.1787325106
 O          4.1500892400        1.7537297811        0.5313707603
 C          2.7994305200        2.0490621311        0.5252589601
 O          2.5019921099        3.1143855811        1.1023529701
 O          1.6345477104       -0.8571428490       -1.2821565100
 C          0.4492948201        1.4924646210       -0.0997119802
 C         -0.3134691399        0.3794362809        0.5760182297
 C          0.0134145099        0.0619262009        1.8929342997
 C         -0.6243846201       -0.9710342791        2.5501648797
 C         -1.6091342400       -1.7048130691        1.9110324995
 C         -1.9455292798       -1.3953596591        0.5991779095
 C         -1.3042834698       -0.3519363991       -0.0577385404
 H         -1.5703931996       -0.1502329091       -1.0809773005
 N         -2.9209665897       -2.1450857192       -0.0756100807
 S         -4.0767093396       -1.4187924692       -1.0366447408
 O         -5.0551430395       -2.4584789693       -1.2671357209
 O         -3.4730954595       -0.8387870892       -2.2082119007
 C         -4.7805749398       -0.1473458593       -0.0032591909
 C         -5.7671849299       -0.5057732593        0.8950324490
 C         -6.2827898701        0.4581934606        1.7456193789
 C         -5.7992528601        1.7568018007        1.6896966690
 C         -4.8087108700        2.1001583607        0.7828166791
 C         -4.2910376598        1.1409803707       -0.0736069008
 H         -3.5243406798        1.3730980908       -0.7939080007
 H         -4.4353430600        3.1108792007        0.7382365091
 H         -6.1983684702        2.5069974406        2.3540125289
 H         -7.0567316701        0.1954690406        2.4486781688
 H         -6.1228038298       -1.5234047093        0.8972732289
 H         -3.3262114597       -2.8912624792        0.4700435893
 H         -2.1019494000       -2.5201505692        2.4185230394
 H         -0.3548689402       -1.2090372491        3.5681529897
 H          0.7879202399        0.6329981710        2.3874713598
 H          0.3473114700        2.4001639310        0.5125179098
 C         -0.0204054497        1.8001767209       -1.5052220103
 C         -1.1807761497        2.7224747909       -1.7228371004
 C          0.2084219103        3.1723443810       -2.0609098502
 H          0.4837179405        3.2679795510       -3.1005252502
 H          0.6844207802        3.8956587810       -1.4145621002
 H         -1.8636367196        2.5091420309       -2.5322321505
 H         -1.6454360898        3.1523858809       -0.8480622805
 H          0.1022824505        0.9644928210       -2.1848203102
