  62
        -98.93226025
 C         -2.7135339176       -0.5506792436       -0.3335846851
 C         -2.8989626058        0.3531627417        0.7419389112
 C         -2.7648930215        1.7892357894        0.4505913009
 C         -2.4610154368        2.1781028641       -0.8013720373
 C         -2.2719652470        3.5543984797       -1.4039437382
 C         -2.1287908240        4.7819735766       -0.5091453931
 C         -0.8348168562        4.8305272306        0.3038096859
 H         -0.0017168536        5.0070895392       -0.3811195727
 H         -0.8917206963        5.6808145521        0.9871267194
 C         -0.5028808416        3.5735754468        1.1054272748
 H         -0.3388640779        2.7293572571        0.4305776233
 H          0.4483244996        3.7442198324        1.6186295442
 C         -1.5310517066        3.1794880658        2.1641866401
 H         -1.6938084209        4.0160391397        2.8472710797
 H         -1.1025493643        2.3533173697        2.7393490653
 C         -2.8942252716        2.7132045008        1.6266123140
 H         -3.3876127536        2.1374540868        2.4153352452
 H         -3.5348057224        3.5583869591        1.3869107216
 H         -2.1331530387        5.6522434312       -1.1711697244
 H         -2.9936010492        4.8761909855        0.1408951583
 H         -1.3885728242        3.4748631207       -2.0457602274
 H         -3.1274262384        3.7075845408       -2.0712984965
 O         -2.3124516082        1.2745650166       -1.8115303617
 C         -2.3826926681       -0.0965715237       -1.6087122429
 O         -2.1425324623       -0.7615195610       -2.6346789617
 H         -0.3456572260       -1.4746705402       -1.0588672858
 C         -0.2475907497       -1.9968723170       -0.1164948199
 C         -1.3879749624       -2.4000002249        0.5650446767
 C         -1.2339553640       -3.0620313061        1.7762773469
 C          0.0273140228       -3.2913230863        2.3008009712
 C          1.1580763729       -2.8517510591        1.6353008685
 C          1.0119943019       -2.2057416442        0.4169989322
 N          2.1650900628       -1.6744844457       -0.2337785138
 S          2.3892656294       -0.0597503523        0.2429818000
 O          2.2415329411        0.0059208998        1.6747206018
 O          1.5394050130        0.8139095115       -0.5394844508
 C          4.0981935583        0.1906907869       -0.1987300983
 C          4.4220478696        0.9184389125       -1.3265374608
 C          5.7576749361        1.0651863352       -1.6685766591
 C          6.7393903002        0.4802789813       -0.8836454814
 C          6.3977277138       -0.2494681464        0.2455722047
 C          5.0650290103       -0.3981818134        0.5933136807
 H          4.7504339077       -0.9486553333        1.4641619928
 H          7.1641356072       -0.7018262480        0.8539608114
 H          7.7773719599        0.5953212149       -1.1531030070
 H          6.0253904304        1.6333690103       -2.5448953267
 H          3.6251802557        1.3588096369       -1.9045448621
 H          2.0344169959       -1.6587521745       -1.2385070406
 H          2.1431942236       -2.9837850776        2.0509754138
 H          0.1282277477       -3.7965651362        3.2491882432
 H         -2.1128346924       -3.3672497359        2.3252027272
 C         -2.7451083955       -2.0282706513        0.0212216659
 H         -3.4664028991       -2.1127588703        0.8496595020
 C         -3.2211630801       -2.9368859168       -1.0998648441
 C         -2.3128484468       -3.8656349794       -1.8430831481
 C         -3.3087563207       -4.4169452719       -0.8702195529
 H         -4.1668095345       -4.9490481451       -1.2512494188
 H         -2.9304859800       -4.7960037907        0.0671466453
 H         -2.4867098309       -3.9924903385       -2.9004913423
 H         -1.2691055363       -3.8848676757       -1.5703728433
 H         -4.0187184973       -2.4834211206       -1.6782878393
 O         -3.1737217806       -0.0326862626        1.9106698223
