  62
        -98.93862674
 C         -1.9617791794       -1.2693719976        0.7821711087
 C         -3.0035715526       -1.1897086652       -0.1750492406
 C         -3.9795100518       -0.1059465543        0.0342060957
 C         -3.8294275416        0.7371060242        1.0707008227
 C         -4.7125942915        1.9165234251        1.3555290956
 C         -4.1806044535        3.1865255810        0.6766333683
 C         -3.8387762147        3.0001685996       -0.8016920696
 H         -2.9953808035        2.3113875588       -0.8892855072
 H         -3.5047642428        3.9675634756       -1.1826309367
 C         -5.0024798374        2.4874581704       -1.6616154099
 H         -5.0405236298        3.0709052188       -2.5840060037
 H         -5.9472472020        2.6458925289       -1.1401053877
 C         -4.8899326004        1.0173849639       -2.0696080320
 H         -3.9073910847        0.8339209381       -2.5113954091
 H         -5.6376958510        0.8208876668       -2.8426914805
 C         -5.1125146734       -0.0055078551       -0.9484495057
 H         -5.1950094722       -0.9926052170       -1.4129267794
 H         -6.0508385395        0.2108868448       -0.4335605806
 H         -3.2762777378        3.5053242106        1.1997734483
 H         -4.9298294297        3.9732899640        0.7825774986
 H         -4.7372716353        2.0749816912        2.4350596013
 H         -5.7210908598        1.7010539550        1.0077997083
 O         -2.8092757135        0.6369802730        1.9612663357
 C         -1.8555574352       -0.3567518349        1.8353098283
 O         -0.9719584562       -0.3330539956        2.7164300757
 O         -3.1319488590       -1.9667141074       -1.1544571503
 C         -0.8648249483       -2.3211617548        0.7357491094
 C          0.3024526542       -1.8035959115       -0.0643967713
 C          0.1362437152       -1.3420044681       -1.3668935657
 C          1.2163404493       -0.8552029487       -2.0801448855
 C          2.4768238107       -0.8054768082       -1.5094119526
 C          2.6475980790       -1.2418243915       -0.2023833219
 C          1.5634201195       -1.7420809515        0.5085075919
 H          1.6996976370       -2.0721919869        1.5293007170
 N          3.9150841075       -1.1734756050        0.3950206695
 S          4.8781866949        0.1601755424        0.0999232119
 O          5.5516570610       -0.0004832589       -1.1647893194
 O          5.7356865892        0.2660249620        1.2590605672
 C          3.7701689931        1.5574046563        0.0123326784
 C          3.8175052763        2.3937862846       -1.0846808448
 C          2.9514956125        3.4737535899       -1.1435098700
 C          2.0526493731        3.6944352852       -0.1114895861
 C          2.0185571397        2.8466016859        0.9851395795
 C          2.8863295805        1.7687322035        1.0518599428
 H          2.8758114193        1.0981544353        1.8962749055
 H          1.3154559827        3.0122688675        1.7861057703
 H          1.3735966804        4.5311097963       -0.1595838355
 H          2.9768714869        4.1360401364       -1.9937996423
 H          4.5265933165        2.1807215431       -1.8682394444
 H          3.9312382561       -1.4358630688        1.3693391130
 H          3.3286650401       -0.4386859216       -2.0586731929
 H          1.0774369531       -0.5087901594       -3.0929480045
 H         -0.8473820646       -1.3744395225       -1.8107801842
 H         -0.5269136351       -2.4274639280        1.7789389746
 C         -1.3523548225       -3.6900216609        0.2824579632
 C         -0.9336907652       -4.3430946885       -0.9969210511
 C         -0.4081233878       -4.8559590710        0.3078359029
 H         -0.7645023851       -5.8053799186        0.6777935032
 H          0.6260149696       -4.6505627913        0.5424383631
 H         -1.6748650438       -4.9233454582       -1.5249060968
 H         -0.2532648016       -3.8149881974       -1.6458721448
 H         -2.3691026697       -3.8845941637        0.6068030611
