  62
        -98.94301895
 C         -0.9350468716       -1.3101137099        0.2782457628
 C         -1.4294422742       -0.2071466703        1.0092129861
 C         -2.2775275315        0.7398423164        0.2662655886
 C         -2.4893280573        0.5363011716       -1.0454829340
 C         -3.3588384218        1.3583731345       -1.9557496331
 C         -4.7635564720        0.7409155895       -2.0606829643
 C         -5.7410382876        1.1772813292       -0.9693900967
 H         -6.0323601320        2.2149563276       -1.1453446290
 H         -6.6383365220        0.5632220682       -1.0747080148
 C         -5.2254459561        1.0517792561        0.4672290191
 H         -4.6904590325        0.1079818108        0.5863456598
 H         -6.0927015097        1.0176051750        1.1294864830
 C         -4.3276577474        2.2232389212        0.8921142923
 H         -4.4466227282        3.0347010789        0.1737817288
 H         -4.6723267289        2.6073109475        1.8541616450
 C         -2.8317743302        1.8972432368        1.0519782930
 H         -2.2498073929        2.7944882640        0.8164022729
 H         -2.6228014353        1.6442997734        2.0960638123
 H         -4.6513299555       -0.3463121413       -2.0440666162
 H         -5.1933946493        1.0095058224       -3.0278694839
 H         -3.4065458755        2.3888328114       -1.6148740508
 H         -2.8886690291        1.3355035414       -2.9414685915
 O         -1.9668034829       -0.5218394991       -1.7213614476
 C         -1.1756300483       -1.4637950447       -1.0872420540
 O         -0.7685343498       -2.3790202957       -1.8285407280
 H          1.3920698999       -0.2049916808        0.3090765400
 C          1.8973510617       -1.1126164081        0.0149494050
 C          1.3064390790       -2.3375889476        0.2991455237
 C          1.9756047530       -3.4976400037       -0.0662762510
 C          3.1852511412       -3.4226539596       -0.7358718744
 C          3.7399382416       -2.2007028862       -1.0678840345
 C          3.0853447952       -1.0329656700       -0.6902145143
 N          3.6181555537        0.2278996253       -0.9930854353
 S          2.6075406567        1.5319443097       -1.2727994558
 O          1.3668872781        1.1458906245       -1.9043064503
 O          3.4341332824        2.4619432923       -2.0152345160
 C          2.3138825875        2.1990771712        0.3505359827
 C          3.4058285119        2.4858234562        1.1460513744
 C          3.1919324847        3.0089988235        2.4107262634
 C          1.8977076091        3.2344236846        2.8555416930
 C          0.8125242592        2.9467061160        2.0427654646
 C          1.0208760945        2.4261897744        0.7754844688
 H          0.2030271878        2.1733187262        0.1169492755
 H         -0.1946536176        3.1076493309        2.3917326038
 H          1.7304311584        3.6353689290        3.8427201743
 H          4.0322538696        3.2352855228        3.0469931134
 H          4.3943688156        2.2962610489        0.7627282395
 H          4.4167126223        0.2219777640       -1.6103573492
 H          4.6664901417       -2.1459849762       -1.6187356349
 H          3.6933313400       -4.3310373615       -1.0224334396
 H          1.5449925900       -4.4598192710        0.1573741954
 C         -0.0414815338       -2.3197700370        0.9769782621
 H          0.0883517819       -1.9392973843        2.0011853870
 C         -0.7095690323       -3.6768579463        1.0385704536
 C         -0.3915943798       -4.6260701335        2.1541659796
 C         -1.7219061885       -3.9381404032        2.1120385904
 H         -2.5978835533       -4.5185567387        1.8639109884
 H         -1.9109853362       -3.1426093342        2.8178442461
 H          0.3218313247       -4.3025843498        2.8967083220
 H         -0.3560345717       -5.6829855888        1.9372358896
 H         -0.9062287601       -4.0868624239        0.0540685687
 O         -1.1779197087       -0.0209950497        2.2309072823
