  62
        -98.94267420
 C          2.0609547434        1.4152071055        0.1004387093
 C          1.7216797435        0.2848065780       -0.6805654499
 C          2.8217047553       -0.6484008398       -0.9620195966
 C          4.0604071557       -0.3604732701       -0.5221298764
 C          5.2590581161       -1.2462855514       -0.6974071114
 C          5.4276646779       -2.1965097897        0.4967732207
 C          4.1464172258       -2.9330623919        0.8877926633
 H          4.3943184351       -3.5943147868        1.7208246501
 H          3.4179888351       -2.2082245433        1.2583154633
 C          3.5125993686       -3.7534289911       -0.2443880453
 H          4.2472164731       -3.9290550452       -1.0310011821
 H          3.2222915152       -4.7288434959        0.1513229611
 C          2.2565743324       -3.1277776950       -0.8542143942
 H          1.5632141975       -2.8509683678       -0.0557419077
 H          1.7660179504       -3.8833031288       -1.4737463099
 C          2.4879489874       -1.8931370862       -1.7347597926
 H          3.2581738866       -2.1079638247       -2.4781613058
 H          1.5535973160       -1.6773680681       -2.2617826360
 H          6.2068028565       -2.9210278124        0.2531713724
 H          5.7632998460       -1.6135740758        1.3575966123
 H          5.1506856708       -1.8171089218       -1.6175475145
 H          6.1453198453       -0.6142994261       -0.7752612541
 O          4.3550478980        0.7614519515        0.1839615886
 C          3.3637170890        1.6640319349        0.5317842905
 O          3.7583530796        2.6289472356        1.2165252872
 H         -1.7023636542        2.6250248956       -0.1598551513
 C         -1.4987330537        1.9039731061        0.6168514411
 C         -0.2014208008        1.6934505823        1.0582623396
 C          0.0099719838        0.7536127683        2.0645436547
 C         -1.0365852528        0.0172647491        2.5843462891
 C         -2.3233602019        0.2002644094        2.1072081125
 C         -2.5483580420        1.1528919533        1.1252645071
 N         -3.8714111713        1.2952804573        0.6153493453
 S         -4.1011436563        0.3715369719       -0.7840608184
 O         -3.2679739488        0.8594322634       -1.8627631555
 O         -5.5239176636        0.4130352400       -1.0494708640
 C         -3.6154581569       -1.2623944561       -0.2849877094
 C         -4.5735842632       -2.0853391767        0.2747560314
 C         -4.2055395287       -3.3532857629        0.6938719051
 C         -2.8911832107       -3.7714174812        0.5482079507
 C         -1.9433954162       -2.9310583128       -0.0151111230
 C         -2.3014666101       -1.6597324478       -0.4368223967
 H         -1.5787802849       -0.9830781694       -0.8675761736
 H         -0.9200983530       -3.2524104994       -0.1282019146
 H         -2.6019992423       -4.7580804134        0.8746303224
 H         -4.9405339337       -4.0092262531        1.1319431778
 H         -5.5821900330       -1.7155356491        0.3613138115
 H         -4.0869787902        2.2549589674        0.3743552492
 H         -3.1488171603       -0.3807728662        2.4847341668
 H         -0.8490349984       -0.7132354937        3.3562568596
 H          1.0194655269        0.5958435991        2.4205104643
 C          0.9850223259        2.4192431191        0.4745920813
 H          1.4208646767        3.0663859917        1.2496920990
 C          0.6390936082        3.2706736116       -0.7301872985
 C          0.1592980153        4.6790763651       -0.5500467741
 C          1.5342197211        4.4176975378       -1.0858204052
 H          1.7289690484        4.6155582325       -2.1292893728
 H          2.3814053154        4.6001765194       -0.4408563859
 H          0.0721450393        5.0534868206        0.4588395466
 H         -0.5899727128        5.0594080820       -1.2286716069
 H          0.2235847910        2.6895396819       -1.5472638634
 O          0.5611673393        0.0599327025       -1.1132102798
