  62
        -98.93265223
 C         -2.3972262844       -1.3751107657       -0.1383557527
 C         -2.2179924827       -0.0799271995       -0.6801692689
 C         -3.4284318505        0.7539084046       -0.7727777627
 C         -4.6058883084        0.2528097465       -0.3575034183
 C         -5.9053585437        1.0053009938       -0.3068287025
 C         -5.9183000352        1.9496569078        0.9124181463
 C         -5.9495545109        3.4366640570        0.5587116016
 H         -6.9571465404        3.7031320567        0.2331436205
 H         -5.7398880805        3.9946404219        1.4737186309
 C         -4.9719252771        3.8841427486       -0.5322051784
 H         -4.9188399437        4.9738475852       -0.4848546066
 H         -5.3771555213        3.6348741274       -1.5139393812
 C         -3.5493584296        3.3183094508       -0.4320144157
 H         -3.3172627021        3.0337264526        0.5946574672
 H         -2.8473680573        4.1083982138       -0.7069873967
 C         -3.2663860302        2.1263132558       -1.3655363975
 H         -3.8829451005        2.2117171572       -2.2648577296
 H         -2.2188640471        2.1715481384       -1.6796883282
 H         -5.0349064140        1.7374133102        1.5183769919
 H         -6.7866473185        1.7283028466        1.5346148290
 H         -6.7042361728        0.2682118566       -0.2251623041
 H         -6.0406853383        1.5670695093       -1.2282469674
 O         -4.7369083607       -0.9997156361        0.1521140288
 C         -3.6434979334       -1.8392381129        0.2821934940
 O         -3.9058775763       -2.9530210306        0.7787901411
 O         -1.1058463639        0.3633385921       -1.0720906075
 C         -1.2086456082       -2.3080104335        0.0254077922
 C         -0.2186145220       -1.6704982589        0.9698675592
 C         -0.6228035302       -1.4316096238        2.2817274700
 C          0.2270352266       -0.8205777614        3.1820554122
 C          1.4934937605       -0.4245465033        2.7881765705
 C          1.9091771272       -0.6630620913        1.4840315599
 C          1.0583769118       -1.2950675718        0.5859364080
 H          1.3998039916       -1.4586780585       -0.4214724847
 N          3.2101128156       -0.3035116363        1.0796749493
 S          3.4315944646        0.4749241611       -0.4052388752
 O          2.6699461511        1.7032898332       -0.4477322711
 O          3.2158512494       -0.4670617361       -1.4725632103
 C          5.1724558335        0.8494274285       -0.2855911164
 C          5.5737729302        2.1277536069        0.0524835837
 C          6.9285951135        2.3984438084        0.1650421741
 C          7.8541958229        1.3904974895       -0.0584138897
 C          7.4364554502        0.1120294458       -0.3978106930
 C          6.0835352382       -0.1644509631       -0.5131889553
 H          5.7122582737       -1.1392768186       -0.7827769771
 H          8.1593086241       -0.6683034475       -0.5733463856
 H          8.9078314867        1.6033829979        0.0296982448
 H          7.2559094522        3.3921846715        0.4252778432
 H          4.8181109847        2.8811064295        0.2079372607
 H          3.6881087592        0.2248332135        1.7991904445
 H          2.1551184939        0.0651854321        3.4871079233
 H         -0.1000743363       -0.6413209809        4.1953580911
 H         -1.6200228479       -1.7280375467        2.5794936074
 H         -1.6016328248       -3.2160278813        0.5051074897
 C         -0.6241940125       -2.6836223690       -1.3187878738
 C          0.1793770027       -3.9408423526       -1.4536389254
 C         -1.1901132334       -3.8580802006       -2.0564697548
 H         -1.2798815788       -3.7965179452       -3.1306515149
 H         -1.9933731984       -4.4022311537       -1.5809626650
 H          1.0344436933       -3.9342630652       -2.1125245037
 H          0.3077880872       -4.5465932430       -0.5693181120
 H         -0.3249280122       -1.8229713792       -1.9063465216
