  62
        -98.93952087
 C         -2.6616229327       -0.8393191131        0.3676803765
 C         -2.6854306728        0.2914449267        1.2196171598
 C         -3.4174910141        1.4621047787        0.7205990775
 C         -4.0000137317        1.4041299235       -0.4911692278
 C         -4.7356422881        2.5378522130       -1.1438354187
 C         -3.7955197908        3.3837856012       -2.0138839221
 C         -2.5046685088        3.7965491355       -1.3066241361
 H         -1.9069204615        2.9037393217       -1.1077476359
 H         -1.9352467808        4.4142924104       -2.0043913935
 C         -2.7179072289        4.5679992618        0.0034593461
 H         -2.0388484440        5.4229771398        0.0205617502
 H         -3.7344154135        4.9611551554        0.0403407564
 C         -2.4431434688        3.7558483541        1.2704782963
 H         -1.4615864168        3.2810440580        1.1947720804
 H         -2.4078561313        4.4472940613        2.1165181889
 C         -3.4770961264        2.6739566248        1.6078464421
 H         -4.4790731135        3.1074747188        1.6005100688
 H         -3.2652167654        2.3155878005        2.6194872719
 H         -3.5293320056        2.8039212489       -2.9006777106
 H         -4.3354363682        4.2746992681       -2.3396694471
 H         -5.5212099655        2.1189324436       -1.7749046752
 H         -5.1928530566        3.1576038661       -0.3749163945
 O         -3.9415635108        0.3080710220       -1.2885573541
 C         -3.2595360668       -0.8340572977       -0.8931155295
 O         -3.2690227150       -1.7493976404       -1.7365005716
 O         -2.1173757090        0.3209085764        2.3456782568
 C         -1.9101477343       -2.0765047942        0.8305152614
 C         -0.6664583587       -2.2339631297       -0.0103914418
 C         -0.4527254342       -3.2915731887       -0.8828278425
 C          0.7058970792       -3.3482079125       -1.6394110035
 C          1.6702378163       -2.3628209386       -1.5411158524
 C          1.4710054301       -1.3043364213       -0.6627814867
 C          0.3113219706       -1.2509185538        0.0952710347
 H          0.1506671525       -0.4277810969        0.7807018574
 N          2.4407697183       -0.2872354418       -0.5593171879
 S          4.0522033213       -0.7861708226       -0.4381940198
 O          4.5333297848       -1.0979855697       -1.7605264833
 O          4.1710824520       -1.8429924709        0.5417204216
 C          4.8351465329        0.7011578451        0.1521616191
 C          5.1984277011        1.6709162907       -0.7629002628
 C          5.7918151255        2.8358002394       -0.3032695947
 C          6.0101427211        3.0107391418        1.0552827667
 C          5.6404357555        2.0281549695        1.9614203011
 C          5.0455252439        0.8610352869        1.5086463883
 H          4.7516710687        0.0667256939        2.1762446873
 H          5.8138553758        2.1656710097        3.0166009940
 H          6.4742896034        3.9172059536        1.4104268691
 H          6.0830837140        3.6010948195       -1.0044724529
 H          5.0183861846        1.4867512262       -1.8091247386
 H          2.2166610269        0.3681879255        0.1775967108
 H          2.5769639470       -2.4024238778       -2.1228532550
 H          0.8596233885       -4.1735762235       -2.3184208518
 H         -1.1951713303       -4.0661293765       -0.9793146467
 H         -1.5920338768       -1.8524557378        1.8590956239
 C         -2.8003225675       -3.2992088784        0.8547708732
 C         -2.4070461421       -4.4826814547        1.6858753536
 C         -3.5598238750       -3.6222225603        2.1051996464
 H         -4.5602032578       -4.0173894509        2.0120426445
 H         -3.4272809404       -2.9664019922        2.9533490182
 H         -2.6154040324       -5.4715832616        1.3069536028
 H         -1.4887309977       -4.4124530403        2.2492632998
 H         -3.2981666309       -3.4809144743       -0.0900845951
