  62
        -98.93856961
 C         -1.0547239870       -1.6421416097       -0.3908997740
 C         -2.2483294896       -1.5680857913        0.3733901695
 C         -3.2675894474       -0.6060113695       -0.0725134907
 C         -3.0281087438        0.1430590294       -1.1617057961
 C         -3.9325386265        1.1548202447       -1.8202935113
 C         -4.6973303647        2.1238601675       -0.9067887528
 C         -3.9735927020        2.5053293321        0.3929199104
 H         -2.9359939812        2.1712969210        0.3563015722
 H         -3.9694191605        3.5926820015        0.4874271409
 C         -4.6420808516        1.9269891762        1.6423087022
 H         -4.3368942552        2.5164910878        2.5099465092
 H         -5.7249544141        2.0289282433        1.5428372578
 C         -4.3019407870        0.4682488423        1.9444029636
 H         -4.9228208259        0.1434500676        2.7827369961
 H         -3.2602769699        0.3887159115        2.2669597325
 C         -4.5028953956       -0.5105058362        0.7760122216
 H         -4.6578826217       -1.5080394491        1.1960056209
 H         -5.3758964639       -0.2443670702        0.1847119060
 H         -5.6687975338        1.6979382597       -0.6596217519
 H         -4.8909283984        3.0233450389       -1.4937764871
 H         -4.6488480508        0.6119235780       -2.4439688748
 H         -3.2869365349        1.7185897313       -2.4982690155
 O         -1.8700251072        0.0393049054       -1.8703771155
 C         -0.8600013146       -0.8450227367       -1.5166494715
 O          0.1192195949       -0.8083972164       -2.2867778145
 O         -2.4616296079       -2.2933719865        1.3808317034
 C         -0.0058027884       -2.6342239422        0.0815813087
 C          1.0371673197       -1.9436775695        0.9295963236
 C          1.0360687749       -2.1346084955        2.3076201059
 C          1.9894114592       -1.5301316722        3.1059328776
 C          2.9614567667       -0.7247305983        2.5428539123
 C          2.9682682628       -0.5190785303        1.1668941269
 C          2.0045955177       -1.1199752969        0.3675011918
 H          2.0153623503       -0.9424763810       -0.6965383273
 N          3.9678244890        0.2761279151        0.5878370850
 S          3.6371776893        1.3117783227       -0.6792175226
 O          3.4970809857        0.5777252485       -1.9088383335
 O          4.7282923599        2.2646721591       -0.6364685266
 C          2.1239038861        2.1424410476       -0.2343728809
 C          1.0036844611        2.0234288938       -1.0284716200
 C         -0.1494414110        2.7002245886       -0.6607845429
 C         -0.1643165592        3.4721953495        0.4896224378
 C          0.9716773168        3.5805709050        1.2779232928
 C          2.1285927032        2.9135626093        0.9124731612
 H          3.0353830247        2.9924378985        1.4898122723
 H          0.9572178136        4.1836579453        2.1714066975
 H         -1.0656171294        3.9940771204        0.7708573854
 H         -1.0298029744        2.6130391345       -1.2779519604
 H          1.0410747038        1.3953379684       -1.9050681093
 H          4.6034995556        0.6988811228        1.2484033466
 H          3.7159113272       -0.2601245976        3.1591142004
 H          1.9775269000       -1.6891285926        4.1733147325
 H          0.2714872345       -2.7570621627        2.7489699423
 H         -0.5514429817       -3.3276472683        0.7368107328
 C          0.6274229210       -3.4406895258       -1.0333671755
 C          1.2654332435       -4.7545397314       -0.6984632997
 C         -0.0206209656       -4.7197849823       -1.4671716718
 H         -0.0050108203       -4.9743482898       -2.5163153199
 H         -0.9261766141       -5.0189739762       -0.9593869392
 H          2.1688904730       -5.0343542039       -1.2182537165
 H          1.2310548197       -5.0793634312        0.3305587581
 H          1.0929254469       -2.8373398104       -1.8016182070
