  62
        -98.93920204
 C         -2.4706863336       -0.2037287963        0.0667857322
 C         -3.4939006823       -0.2991725353        1.0395749378
 C         -4.7736897020        0.3230011896        0.6849676339
 C         -4.9055661851        0.9476429348       -0.4996739705
 C         -6.1422398878        1.6464671744       -0.9964877397
 C         -7.1727080626        0.7099425949       -1.6425858200
 C         -7.9385282986       -0.1882758296       -0.6701504093
 H         -8.3633923474        0.4211784620        0.1280708678
 H         -8.7715044974       -0.6239214062       -1.2255392620
 C         -7.1025961270       -1.3242089949       -0.0640634401
 H         -6.1979840789       -1.4685109466       -0.6592635569
 H         -7.6683242208       -2.2574930712       -0.1099188708
 C         -6.7037258262       -1.1075695957        1.3955880483
 H         -6.0819509388       -1.9495898900        1.7102257046
 H         -7.5977088630       -1.0964961331        2.0230554971
 C         -5.9143779839        0.1834625152        1.6474764058
 H         -6.5751567371        1.0477317779        1.5834384814
 H         -5.4941669455        0.1376321567        2.6553760235
 H         -7.8956366434        1.3368228989       -2.1697419710
 H         -6.6643890045        0.0918486634       -2.3861696265
 H         -6.6091778872        2.1925978833       -0.1762188868
 H         -5.8111147686        2.3656050674       -1.7487945545
 O         -3.8906995536        1.0340534567       -1.4008221996
 C         -2.6550889748        0.4534112456       -1.1496994545
 O         -1.8251700610        0.5939530483       -2.0676108102
 O         -3.3414099064       -0.8710969397        2.1530309303
 C         -1.1258419848       -0.8382006484        0.3593863125
 C         -0.0167073924        0.1864028474        0.3567598645
 C         -0.2475760129        1.4580163453        0.8732020123
 C          0.7603016450        2.4028195906        0.9071638237
 C          2.0266040543        2.0987746420        0.4407142201
 C          2.2764446686        0.8262353386       -0.0527335406
 C          1.2592714508       -0.1202036213       -0.0916856897
 H          1.4688593797       -1.1043948873       -0.4814788460
 N          3.5649885487        0.5069840639       -0.5139186181
 S          4.8641205793        1.0452255737        0.4255057660
 O          4.5523999062        0.8935074388        1.8286066968
 O          5.2154664684        2.3769772223       -0.0005609821
 C          6.1417288924       -0.1030145156       -0.0507891402
 C          6.9364991074        0.1843240516       -1.1440594193
 C          7.9125332802       -0.7255627161       -1.5189093942
 C          8.0756070839       -1.9003450833       -0.7999660716
 C          7.2704059671       -2.1745767754        0.2955179553
 C          6.2922562727       -1.2695199443        0.6756698622
 H          5.6519820316       -1.4360959315        1.5272359376
 H          7.4014250455       -3.0872831953        0.8542880658
 H          8.8373436476       -2.6055817104       -1.0926981150
 H          8.5426595993       -0.5152986208       -2.3679758791
 H          6.7795042875        1.1134333603       -1.6666869117
 H          3.6577746618       -0.4698349509       -0.7567053135
 H          2.8246486446        2.8237621624        0.4650857504
 H          0.5593328577        3.3873903819        1.3030638734
 H         -1.2328598051        1.7014311677        1.2472898552
 H         -1.2107590326       -1.2354491099        1.3830738600
 C         -0.8778575793       -1.9933733832       -0.5904620005
 C         -0.1335884202       -3.2124486130       -0.1353803334
 C         -1.6124901871       -3.2799992030       -0.3658631069
 H         -1.9797602036       -3.8215040587       -1.2246632009
 H         -2.2633163423       -3.3332165659        0.4947828319
 H          0.5143994837       -3.7139646676       -0.8387289840
 H          0.2182709815       -3.2327769512        0.8852264830
 H         -0.7482917627       -1.6638375866       -1.6154190461
