  62
        -98.93310553
 C         -2.3718692598       -1.1372645205        0.0713753262
 C         -2.4725503384        0.2738797178        0.0913959420
 C         -3.8195702100        0.8193895105        0.3276188871
 C         -4.8467870149       -0.0276755014        0.5229087497
 C         -6.2853866050        0.3694769474        0.6962046911
 C         -6.8989703997        0.7319872706       -0.6713103359
 C         -7.3037110630        2.1995891394       -0.8111181948
 H         -7.5143516826        2.3813623939       -1.8671285436
 H         -8.2295046430        2.3667643647       -0.2567175074
 C         -6.2751885973        3.2249878993       -0.3243343941
 H         -6.3241651815        3.3072460002        0.7623918979
 H         -6.5795193608        4.1946956379       -0.7238846551
 C         -4.8193609552        2.9609992705       -0.7305194698
 H         -4.7752672264        2.3466880496       -1.6301848538
 H         -4.3562014802        3.9185072081       -0.9776935457
 C         -3.9533546821        2.3166244729        0.3684843511
 H         -2.9291905890        2.6895409642        0.2706714037
 H         -4.3217882827        2.6244807327        1.3510280948
 H         -7.7813703327        0.1155777466       -0.8491994711
 H         -6.1759459419        0.4767374158       -1.4489087415
 H         -6.8067456746       -0.4827177878        1.1324049277
 H         -6.3548021738        1.2103311753        1.3825393885
 O         -4.7048327774       -1.3789297423        0.5091986889
 C         -3.4723952509       -1.9671955899        0.2809647831
 O         -3.4848373425       -3.2146491559        0.2967752646
 H          1.5985774693       -1.0633675034       -0.5900718845
 C          1.2940845308       -1.0053281097        0.4408659317
 C         -0.0010967607       -1.3298240500        0.8135950655
 C         -0.3463183620       -1.2529560244        2.1603944348
 C          0.5731491981       -0.8323693234        3.1011805550
 C          1.8578120179       -0.4858360339        2.7216348360
 C          2.2209495666       -0.5816295894        1.3836153482
 N          3.5399447946       -0.2972546370        0.9888431007
 S          3.8612290692        0.3776144655       -0.5232777664
 O          3.1246189592        1.6091956091       -0.6999889233
 O          3.6800367286       -0.6300810972       -1.5370093057
 C          5.6010045364        0.7194190666       -0.3280282391
 C          6.4944708090       -0.3277825019       -0.4531338378
 C          7.8459924338       -0.0804762194       -0.2737986312
 C          8.2797284586        1.2025712553        0.0259508530
 C          7.3718598367        2.2438335584        0.1458606382
 C          6.0181747113        2.0027875171       -0.0307029970
 H          5.2768893572        2.7822143051        0.0453678747
 H          7.7124319189        3.2406926553        0.3753399789
 H          9.3323227273        1.3927618535        0.1642104742
 H          8.5552747786       -0.8867776968       -0.3688186975
 H          6.1116545765       -1.3052463655       -0.6957743785
 H          4.0616881055        0.1847362418        1.7086728042
 H          2.5736434958       -0.1491804738        3.4561429928
 H          0.2859979528       -0.7669594013        4.1400576169
 H         -1.3524993562       -1.5175843896        2.4574181110
 C         -1.0305193497       -1.7970234182       -0.1870776752
 H         -1.1875895167       -2.8757216222       -0.0347861443
 C         -0.6099591206       -1.5670162031       -1.6244072233
 C          0.2153498202       -2.5881625701       -2.3458342181
 C         -1.2262312187       -2.3983062804       -2.7077245995
 H         -1.4668041748       -1.9248136762       -3.6477807390
 H         -1.9335665217       -3.1571278830       -2.4051988169
 H          0.4871779567       -3.4819854725       -1.8047038492
 H          0.9746502572       -2.2428268993       -3.0318309461
 H         -0.4262074821       -0.5196483726       -1.8407963699
 O         -1.4878210288        1.0417633090       -0.0756582456
