  62
        -98.93787626
 C         -2.4693965413       -0.9442413413        0.6711025879
 C         -3.5236568765       -0.9412517175       -0.2751026490
 C         -4.6886686533       -0.1143726168        0.0708180997
 C         -4.7072407763        0.5831083240        1.2200707123
 C         -5.8316072962        1.4518550948        1.7149018140
 C         -5.8243050477        2.8738223334        1.1373445785
 C         -6.2374510204        2.9821617189       -0.3310065037
 H         -7.1896620626        2.4715487074       -0.4782231932
 H         -6.4000256094        4.0413033165       -0.5405604563
 C         -5.2001642916        2.4372221066       -1.3228732691
 H         -4.2314277174        2.3461947414       -0.8256982972
 H         -5.0716067665        3.1476124175       -2.1427344123
 C         -5.5648122783        1.0893486578       -1.9449987633
 H         -6.4615729196        1.1995390540       -2.5589155843
 H         -4.7447106209        0.7814195650       -2.5986068282
 C         -5.8054825556       -0.0318517658       -0.9259810913
 H         -6.7579254082        0.1189081058       -0.4184317292
 H         -5.8413645580       -0.9819134703       -1.4646154100
 H         -4.8261062738        3.2984748981        1.2668530822
 H         -6.5192273461        3.4704858335        1.7328002569
 H         -6.7870495732        0.9740950862        1.4962252141
 H         -5.7168062974        1.5201573702        2.7988358041
 O         -3.6730654015        0.5585548081        2.1021203754
 C         -2.5363196601       -0.1861730749        1.8446087059
 O         -1.6630334282       -0.1039772188        2.7327238170
 H          1.1843463433       -0.6641251345        1.1558326433
 C          0.9705091527       -0.5305764699        0.1035441495
 C         -0.2220461842       -1.0163183953       -0.4129042562
 C         -0.4918644753       -0.8241458209       -1.7636183159
 C          0.4126879229       -0.1561189279       -2.5689390719
 C          1.5994368648        0.3309248722       -2.0500606699
 C          1.8784718358        0.1445830373       -0.7029969594
 N          3.0737730834        0.6530044866       -0.1633389307
 S          4.4834584138        0.4180005497       -1.0666086168
 O          4.5770259311        1.4712592252       -2.0462886417
 O          4.5181840299       -0.9309754196       -1.5848456001
 C          5.7355297979        0.6369026052        0.1819483745
 C          6.2274372303       -0.4739475919        0.8410425100
 C          7.1833894401       -0.2983381741        1.8289922312
 C          7.6264877197        0.9782276190        2.1411099342
 C          7.1234488898        2.0832397511        1.4705339104
 C          6.1680611481        1.9148326777        0.4808700115
 H          5.7559544824        2.7424484915       -0.0724773112
 H          7.4729078436        3.0734179566        1.7146071851
 H          8.3708465693        1.1120420588        2.9100798637
 H          7.5785926460       -1.1556416343        2.3498043929
 H          5.8618385707       -1.4483573312        0.5586608227
 H          3.2046796037        0.3782415320        0.8005846302
 H          2.3149138054        0.8469856972       -2.6703115949
 H          0.1920459982       -0.0120512878       -3.6162445389
 H         -1.4213689516       -1.1901702690       -2.1715032171
 C         -1.1882618761       -1.7441660857        0.4920762097
 H         -0.7334415065       -1.7943643795        1.4906484605
 C         -1.4282847942       -3.1611749257        0.0088359125
 C         -0.3667339831       -4.1921273945        0.2410469267
 C         -1.6496446396       -4.2490312827        1.0139925882
 H         -2.3600320146       -5.0278710720        0.7812484020
 H         -1.6283428487       -3.9762456449        2.0593399105
 H          0.5266490672       -3.8817184653        0.7620349746
 H         -0.1923198178       -4.9327601706       -0.5241770497
 H         -1.9909525704       -3.2148580168       -0.9130558954
 O         -3.5233267499       -1.5892422159       -1.3545128990
