  62
        -98.94121929
 C         -1.5454209892       -1.6248286596       -0.2227544292
 C         -2.6846715492       -1.2620429601        0.5391759010
 C         -3.4802501897       -0.1300856503        0.0412611712
 C         -3.1016233501        0.5003734398       -1.0858231289
 C         -3.7525514207        1.6482384196       -1.8261861687
 C         -4.6296768809        2.6521079693       -1.0786557686
 C         -3.9349756110        3.4129171595        0.0481632213
 H         -3.1389673612        4.0274751098       -0.3797232788
 H         -4.6699447311        4.0862750792        0.4954384815
 C         -3.3248973705        2.5487020697        1.1509959412
 H         -2.4446554703        2.0261825600        0.7710442811
 H         -2.9817625606        3.2160177198        1.9461579612
 C         -4.2706311200        1.5257231494        1.7815458914
 H         -3.7779997997        1.1401097595        2.6776478313
 H         -5.1929858701        2.0188828890        2.0935314315
 C         -4.6294474097        0.3136333993        0.8973363714
 H         -4.8717114893       -0.5261226108        1.5543723014
 H         -5.5049341199        0.5113424890        0.2825083116
 H         -5.5239735006        2.1665159490       -0.6989608684
 H         -4.9579621113        3.3854243592       -1.8205107785
 H         -2.9351417309        2.1855573999       -2.3164954189
 H         -4.3522844706        1.1994762094       -2.6260827886
 O         -2.0093153501        0.1033074402       -1.7977175890
 C         -1.1945347097       -0.9399966995       -1.3843401192
 O         -0.2207941897       -1.1388543491       -2.1364023394
 H          1.6892572108       -2.2078777785       -0.9864373697
 C          1.6862366409       -1.8374615585        0.0261800003
 C          0.5890590011       -2.0660239289        0.8424146105
 C          0.6022831511       -1.5519634189        2.1361911805
 C          1.6855039710       -0.8274296386        2.5983166603
 C          2.7665340707       -0.5756489882        1.7710795801
 C          2.7543936507       -1.0740339081        0.4753205601
 N          3.8146943004       -0.7604074877       -0.3962333401
 S          4.2443678899        0.8574042724       -0.4635922001
 O          4.7152099595        1.0787394426       -1.8133510802
 O          5.2015606099        1.1368672127        0.5793980398
 C          2.7519873296        1.7922360619       -0.1578779098
 C          2.7509211794        2.7453679719        0.8409988002
 C          1.5969105492        3.4751854614        1.0748300804
 C          0.4652645391        3.2399200711        0.3096612706
 C          0.4831672093        2.2808564511       -0.6905966694
 C          1.6345137095        1.5484590015       -0.9313327696
 H          1.6507307897        0.7908775215       -1.6995582097
 H         -0.3951433007        2.0843879608       -1.2854280893
 H         -0.4363501710        3.8030150507        0.4937949208
 H          1.5813650091        4.2213535614        1.8527472304
 H          3.6511379595        2.8912229522        1.4157827700
 H          3.6809181104       -1.1263613278       -1.3283949500
 H          3.6112189006        0.0062689421        2.1032123600
 H          1.6839855710       -0.4414797886        3.6061400903
 H         -0.2589797187       -1.7115089092        2.7692768906
 C         -0.6566574187       -2.7347439493        0.3170410207
 H         -1.2047064285       -3.1623036795        1.1665752908
 C         -0.3924137685       -3.8288251792       -0.6944656394
 C          0.2059543720       -5.1215675090       -0.2285621095
 C         -1.2269912781       -5.0726833595       -0.6636580093
 H         -1.4980868281       -5.5334494096       -1.6017908792
 H         -1.9937448279       -5.1428396698        0.0938227108
 H          0.9212242321       -5.6191825288       -0.8654666397
 H          0.4126183622       -5.2219602890        0.8262242904
 H         -0.1002172188       -3.4589815291       -1.6692831294
 O         -3.0253587388       -1.8623495802        1.5922142011
