  62
        -98.94075442
 C          2.3069162299        1.0429492593        0.0040707691
 C          2.0726568898       -0.2161398808       -0.6002782506
 C          2.7652826797       -1.3584067707        0.0112469696
 C          3.5129231198       -1.1843407005        1.1150158295
 C          4.2446168098       -2.2584306404        1.8729829097
 C          5.6234794898       -2.6045261406        1.2940491497
 C          5.6000415396       -3.3877255209       -0.0191046901
 H          6.6153568396       -3.7486679310       -0.1945539702
 H          4.9582567496       -4.2621344008        0.0929519101
 C          5.1499127796       -2.5684700211       -1.2366910403
 H          5.2135635496       -1.5033745811       -1.0025850406
 H          5.8291031795       -2.7539941314       -2.0717366403
 C          3.7357536495       -2.8832413312       -1.7244207401
 H          3.6929432394       -3.9135132413       -2.0845131899
 H          3.5079025195       -2.2223420914       -2.5644789902
 C          2.6451667296       -2.6925357509       -0.6620581501
 H          1.6707849696       -2.7288384909       -1.1555476600
 H          2.6910932596       -3.4946231207        0.0743688301
 H          6.1480142598       -3.2044471104        2.0412465598
 H          6.1862134398       -1.6783705507        1.1565457694
 H          3.6295612598       -3.1578511103        1.9180632100
 H          4.3818071400       -1.8811280801        2.8887548996
 O          3.6746126800        0.0329202296        1.6979210492
 C          3.1006743800        1.1659395795        1.1497573690
 O          3.3669044701        2.2179791897        1.7652874487
 O          1.3284765697       -0.4083563210       -1.5998506805
 C          1.7019770699        2.3447347592       -0.5034966711
 C          0.2801191500        2.4825547694       -0.0133916111
 C         -0.0711888599        3.4786000096        0.8898108787
 C         -1.3672051699        3.5728472798        1.3667556188
 C         -2.3373654799        2.6750383598        0.9579937591
 C         -1.9923229401        1.6711435896        0.0632697793
 C         -0.6972392101        1.5873561894       -0.4247156008
 H         -0.4325834402        0.7948474992       -1.1095845406
 N         -2.9711530802        0.7311607395       -0.3474076104
 S         -3.4628834701       -0.3435002702        0.8642481099
 O         -3.9419744800        0.4193281001        1.9881883498
 O         -2.4104589602       -1.2994864502        1.1434261201
 C         -4.8282865002       -1.1548759103        0.0561762102
 C         -6.0622647402       -0.5336717702        0.0585215002
 C         -7.1209782003       -1.1452688503       -0.5933749996
 C         -6.9286034004       -2.3598090004       -1.2349521693
 C         -5.6838225705       -2.9706879205       -1.2292455093
 C         -4.6205512704       -2.3635203804       -0.5794349095
 H         -3.6379553704       -2.8066273505       -0.5418481195
 H         -5.5367415206       -3.9156141106       -1.7272396191
 H         -7.7540702305       -2.8349745305       -1.7410050791
 H         -8.0907718803       -0.6744865002       -0.5989796096
 H         -6.1660999501        0.4049784099        0.5767763400
 H         -2.6156079803        0.1694700493       -1.1125196303
 H         -3.3429040899        2.7238781699        1.3413498992
 H         -1.6239926898        4.3515599000        2.0690288487
 H          0.6860334202        4.1684191497        1.2339863185
 H          2.2931108200        3.1455556393       -0.0394446214
 C          1.7888743298        2.4969819289       -2.0094217512
 C          1.7096317098        3.8690611487       -2.6049330715
 C          3.0091229198        3.1224312687       -2.6120674814
 H          3.3779740097        2.7323226384       -3.5487606914
 H          3.7886039099        3.4475914488       -1.9380916716
 H          1.1836889897        3.9950485185       -3.5386865515
 H          1.6088186299        4.7029014189       -1.9267652817
 H          1.3296975597        1.6827937888       -2.5536834710
