  62
        -98.94576777
 C         -2.4995999090        0.0595057977        0.5609912910
 C         -2.4552442708        0.8480411169       -0.6137542879
 C         -1.9689994825        2.2221178590       -0.4432844054
 C         -1.5378100415        2.6337610374        0.7620916960
 C         -0.9836788713        3.9943038199        1.0877054796
 C          0.4977039159        4.1579600638        0.7198078353
 C          0.7837768634        4.3316174122       -0.7728002026
 H          0.1270036218        5.1001999278       -1.1825080982
 H          1.8089738334        4.6973030437       -0.8592882944
 C          0.6535855218        3.0425202787       -1.5956347955
 H          0.7046211311        2.1775467349       -0.9307273551
 H          1.4996487176        2.9676748867       -2.2836804548
 C         -0.6162044480        2.9462092087       -2.4411456964
 H         -0.6315595149        1.9637523549       -2.9198154143
 H         -0.5936837808        3.7065344370       -3.2261420574
 C         -1.9215900747        3.1062464742       -1.6538372392
 H         -2.0591016660        4.1477275448       -1.3627354163
 H         -2.7482932125        2.8122780097       -2.3059804240
 H          0.8684931074        5.0409742899        1.2461745434
 H          1.0453266952        3.2885818824        1.0934463307
 H         -1.5738737116        4.7629430969        0.5871220710
 H         -1.0891717911        4.1220672948        2.1672870223
 O         -1.5763825004        1.8384865117        1.8651593658
 C         -2.0423877054        0.5379856318        1.7887736655
 O         -2.0179978699       -0.0811646341        2.8748368448
 H         -0.3287668592       -1.4744107660        1.0206403541
 C         -0.5408299412       -1.9866460377        0.0918429706
 C         -1.8570799550       -2.1067465169       -0.3381420823
 C         -2.1118290447       -2.7943807953       -1.5161256197
 C         -1.0634196727       -3.3076566428       -2.2621917761
 C          0.2484499019       -3.1270354774       -1.8654985786
 C          0.5107059377       -2.4592411452       -0.6730169643
 N          1.8249685293       -2.2570954494       -0.2215836324
 S          2.1462260532       -0.8547183007        0.6678215091
 O          1.9742561956       -1.1578068902        2.0678182061
 O          1.3930045748        0.2619886906        0.1484367930
 C          3.8814064391       -0.6366822416        0.3175271376
 C          4.2668381129        0.2855312755       -0.6366706038
 C          5.6153812634        0.4289846262       -0.9239785472
 C          6.5494828822       -0.3502829032       -0.2582446328
 C          6.1473284983       -1.2712003564        0.6980846183
 C          4.8009677098       -1.4183536395        0.9915422047
 H          4.4409255254       -2.1114798670        1.7339118532
 H          6.8765958054       -1.8728134263        1.2160528565
 H          7.5979799788       -0.2369356849       -0.4838856523
 H          5.9304499538        1.1469668531       -1.6638008391
 H          3.5039083583        0.8733356336       -1.1219490961
 H          2.5231896469       -2.4310647490       -0.9311566262
 H          1.0636477671       -3.4965758915       -2.4687283837
 H         -1.2720710920       -3.8341063039       -3.1812734672
 H         -3.1259988806       -2.9099294825       -1.8611136644
 C         -2.9083766621       -1.4042573426        0.4876677303
 H         -2.8516525735       -1.7880975841        1.5168022672
 C         -4.3205804781       -1.5714804465       -0.0262675468
 C         -5.0846689811       -2.8206898771        0.2915715616
 C         -5.4580047451       -1.5262479050        0.9475185762
 H         -6.3734273808       -1.0390235411        0.6474141449
 H         -5.2129632217       -1.3898910700        1.9911076506
 H         -4.5895922443       -3.5682193625        0.8929536489
 H         -5.7484626828       -3.2244348428       -0.4576447775
 H         -4.4723833155       -1.1073992311       -0.9931320847
 O         -2.8129252776        0.4371522507       -1.7491091250
