  62
        -98.94789873
 C         -0.9778994748       -0.9964870081        0.7122213366
 C         -1.6007224563       -0.8889687630       -0.5543628466
 C         -2.2952101163        0.3774205262       -0.8157144749
 C         -2.2508280851        1.3659257267        0.0947831960
 C         -2.8682754037        2.7311381227       -0.0485980629
 C         -4.3575833814        2.7884526762        0.3184746448
 C         -5.3030352935        2.1325708518       -0.6884246492
 H         -6.3169972407        2.4355357594       -0.4198914519
 H         -5.0989507809        2.5250771907       -1.6851583292
 C         -5.2363720129        0.5992345600       -0.7138838877
 H         -6.2492203661        0.1904535650       -0.7148972195
 H         -4.7459495425        0.2405242201        0.1937899832
 C         -4.5120555852        0.0171951057       -1.9278904878
 H         -4.4898878462       -1.0707631542       -1.8261227811
 H         -5.0664695055        0.2590902854       -2.8374096232
 C         -3.0668146380        0.5056197245       -2.0934300613
 H         -2.5707465892       -0.1194565015       -2.8404809307
 H         -3.0530227856        1.5376292122       -2.4449463337
 H         -4.6301198491        3.8427115701        0.4061471069
 H         -4.4925895289        2.3263775496        1.2989529015
 H         -2.3226983704        3.3932358717        0.6277186228
 H         -2.7266056408        3.0884621737       -1.0695467602
 O         -1.5955137279        1.2423273158        1.2801971924
 C         -0.9502238299        0.0623463619        1.6181455818
 O         -0.3914195368        0.0842154433        2.7335672192
 H          1.4515503934       -0.3583117964        0.2762149719
 C          1.6874434326       -1.2944245311       -0.2086940692
 C          0.9310788107       -2.4203144560        0.0912592791
 C          1.2560333449       -3.6210677675       -0.5249638706
 C          2.2919993082       -3.6749988299       -1.4422932794
 C          3.0104759708       -2.5406788346       -1.7729245760
 C          2.7013627051       -1.3366464292       -1.1495561876
 N          3.4096623892       -0.1601091156       -1.4366073730
 S          2.6086959281        1.3094806919       -1.4218606093
 O          1.2506169451        1.1966363532       -1.9014040548
 O          3.4734319374        2.1902345234       -2.1812438747
 C          2.6293651433        1.8175558795        0.2832535310
 C          1.5090484460        2.4267989986        0.8111706590
 C          1.5268191622        2.8373309692        2.1340242575
 C          2.6639645450        2.6369679333        2.9003390094
 C          3.7853319647        2.0323045795        2.3528586687
 C          3.7729866695        1.6184598453        1.0307171437
 H          4.6223687823        1.1392478309        0.5732099445
 H          4.6664070856        1.8774625889        2.9546625977
 H          2.6712166370        2.9498492805        3.9324758580
 H          0.6488990119        3.2939202655        2.5620690613
 H          0.6383596738        2.5458061161        0.1841825804
 H          4.0696865658       -0.2273321094       -2.1976787767
 H          3.7996162165       -2.5813457625       -2.5081290052
 H          2.5317221657       -4.6123438317       -1.9211160233
 H          0.6917021982       -4.5108049107       -0.2986519214
 C         -0.2044401561       -2.2528258327        1.0726619041
 H          0.2276864718       -2.0698462198        2.0676080465
 C         -1.1253945208       -3.4516080293        1.1497978576
 C         -0.7987291118       -4.5964336847        2.0597904724
 C         -1.9259401095       -3.6688697738        2.3975257906
 H         -2.9393551533       -4.0291892900        2.3037575303
 H         -1.7862293208       -2.9638716393        3.2042739660
 H         -1.0410620309       -5.5975724537        1.7365805505
 H          0.1052102642       -4.5272750019        2.6456856211
 H         -1.6059514199       -3.6680827911        0.2027603977
 O         -1.5822303727       -1.8013495750       -1.4216274103
