  62
        -98.93833226
 C          1.9392628744        1.2048249295        0.0532801346
 C          2.3762824698        0.1873170616       -0.8254739045
 C          3.8145183728       -0.1396525884       -0.7883785656
 C          4.6240542483        0.5201214312        0.0607765244
 C          6.1198272213        0.4352443630        0.2828897831
 C          6.9271321314       -0.7373899194       -0.2675665597
 C          6.6183667287       -2.0865489408        0.3807222598
 H          7.1734338811       -2.8587872994       -0.1563541771
 H          6.9848583058       -2.0693551196        1.4102491413
 C          5.1426074525       -2.4754228625        0.4245829744
 H          5.0680661364       -3.4503709694        0.9140717736
 H          4.5928960153       -1.7638008110        1.0441939608
 C          4.4536915994       -2.5852949889       -0.9342588447
 H          3.4633295566       -3.0176518187       -0.7662709850
 H          5.0126378675       -3.2698409226       -1.5753880511
 C          4.2564887857       -1.2581902843       -1.6872505891
 H          5.1511956750       -0.9791014194       -2.2386195848
 H          3.4530903369       -1.4014301148       -2.4158402005
 H          6.8159991546       -0.7986984649       -1.3461232612
 H          7.9784914296       -0.5104156637       -0.0707266553
 H          6.5334556520        1.3626597225       -0.1285934309
 H          6.2626322811        0.4898190143        1.3668056880
 O          4.1521823297        1.4953250029        0.8922957527
 C          2.8166923283        1.8489961200        0.9249021586
 O          2.5385656395        2.7347620787        1.7576561059
 H         -1.3041901306        0.0179617922       -1.2763006879
 C         -1.1936829304       -0.2737639819       -0.2440049415
 C         -0.3346429957        0.4281700110        0.5856373764
 C         -0.2044360607        0.0161484368        1.9093764790
 C         -0.9139909466       -1.0689823405        2.3879245748
 C         -1.7681574506       -1.7711052254        1.5541195316
 C         -1.8994384528       -1.3708229763        0.2325985630
 N         -2.7893790396       -2.0710321643       -0.6139328585
 S         -4.4104638019       -1.8878562644       -0.2296244352
 O         -4.6768373030       -2.5638876686        1.0139535468
 O         -5.1462041678       -2.3518232673       -1.3836451399
 C         -4.6101677520       -0.1268250607       -0.0282048862
 C         -4.3779769012        0.4388478607        1.2094104547
 C         -4.4347266582        1.8175890451        1.3354578110
 C         -4.7195344579        2.6019710145        0.2284233099
 C         -4.9539680896        2.0179513691       -1.0070743354
 C         -4.8919539268        0.6405447953       -1.1408564164
 H         -5.0697112855        0.1461481572       -2.0825499604
 H         -5.1787655828        2.6318949396       -1.8643631577
 H         -4.7600414212        3.6752971295        0.3288046613
 H         -4.2511770296        2.2741032345        2.2949342189
 H         -4.1630682644       -0.2044704217        2.0467323319
 H         -2.6499167197       -1.8544937761       -1.5912441305
 H         -2.3409974920       -2.6126172004        1.9090699830
 H         -0.8016533184       -1.3735703041        3.4175698272
 H          0.4679100044        0.5614151484        2.5580767807
 C          0.4754232628        1.6085809488        0.1101888193
 H          0.4110684839        2.3929158845        0.8765267117
 C          0.0070479835        2.1782099345       -1.2122447300
 C         -1.2771664712        2.9491210699       -1.2661242586
 C          0.0324726283        3.6611400412       -1.4199236283
 H          0.3038803575        4.0392984286       -2.3941609047
 H          0.3842652279        4.2728716502       -0.6021485898
 H         -1.8208788813        3.0730898136       -0.3419187592
 H         -1.9085702713        2.8415284673       -2.1348612206
 H          0.2648522850        1.5535006796       -2.0590525954
 O          1.6115384108       -0.4197018355       -1.6202137148
