  62
        -98.94338620
 C         -1.9308735700       -0.7681003897        0.5488330603
 C         -2.2309103499       -0.1810894900       -0.7035491599
 C         -2.6270280797        1.2315513700       -0.6645444803
 C         -2.6249932196        1.8949464504        0.5057972395
 C         -2.9715188594        3.3463388105        0.7013980190
 C         -4.4767363994        3.6176697007        0.8326069290
 C         -5.2771365694        3.4861885205       -0.4637539809
 H         -6.2647997794        3.9109434107       -0.2739742010
 H         -4.8066780694        4.0885028002       -1.2413608811
 C         -5.4470947096        2.0433968803       -0.9594002305
 H         -5.2242287097        1.3500433705       -0.1451509403
 H         -6.4878558497        1.8772131204       -1.2461432104
 C         -4.5814336797        1.6817373198       -2.1663810504
 H         -4.7549312899        0.6305992098       -2.4096940801
 H         -4.8836785197        2.2819865496       -3.0272840406
 C         -3.0751123597        1.8723844297       -1.9435310305
 H         -2.8240983695        2.9329326497       -1.9460718608
 H         -2.5405684898        1.3835250694       -2.7617326604
 H         -4.8878134394        2.9415730610        1.5858424192
 H         -4.5915341692        4.6385727609        1.2040606887
 H         -2.4810534093        3.6591036007        1.6259066489
 H         -2.5629980493        3.9330418502       -0.1219332311
 O         -2.2792526697        1.3062259507        1.6830313097
 C         -1.9392784999       -0.0357110493        1.7343484601
 O         -1.6697832799       -0.4546883690        2.8806892702
 O         -2.1730969601       -0.8021596004       -1.7970776397
 C         -1.5234783602       -2.2271345597        0.6190840807
 C         -0.2856330603       -2.4695383402       -0.2119719193
 C         -0.0980355504       -3.6160391004       -0.9736791889
 C          1.0714625195       -3.7947092608       -1.6922695389
 C          2.0760635996       -2.8461601310       -1.6605277992
 C          1.8970929298       -1.6931685107       -0.9025865196
 C          0.7268332199       -1.5189006803       -0.1829744096
 H          0.6015009200       -0.6232599701        0.4097651502
 N          2.8822155000       -0.6922371708       -0.8831162899
 S          3.0119484602        0.3229635396        0.4546825198
 O          3.0089399401       -0.4535717601        1.6749586700
 O          2.0199724103        1.3649504497        0.3501133795
 C          4.6360583202        1.0027125592        0.1699768595
 C          5.7264051202        0.4309385693        0.7984086297
 C          6.9902093202        0.9408294490        0.5454251095
 C          7.1420653304        2.0062409487       -0.3292131608
 C          6.0383685904        2.5708780687       -0.9512870610
 C          4.7718077104        2.0663845890       -0.7019821908
 H          3.8838682904        2.4766838589       -1.1542833109
 H          6.1595000605        3.4011523585       -1.6281475312
 H          8.1263797904        2.4010919385       -0.5250598810
 H          7.8492251702        0.5061078790        1.0304251296
 H          5.5577436901       -0.3893531505        1.4774357599
 H          3.7836723099       -1.0121721711       -1.2093110598
 H          2.9866026196       -2.9869494713       -2.2224038592
 H          1.2036389094       -4.6889837010       -2.2821663486
 H         -0.8686873806       -4.3686207803       -1.0062104386
 H         -1.2621447002       -2.4193295795        1.6714009708
 C         -2.6895920503       -3.1152940097        0.2339311910
 C         -2.8543194705       -4.4668862795        0.8593804314
 C         -3.7783933703       -3.3492766892        1.2361524711
 H         -4.8004866004       -3.3824396492        0.8900506912
 H         -3.6608239102       -2.8908320890        2.2078067110
 H         -3.2468802306       -5.2707633796        0.2550699617
 H         -2.1154609305       -4.7760828594        1.5834036515
 H         -2.9811863004       -2.9878219200       -0.8022356590
