  62
        -98.94038413
 C          1.7851206426        1.0109314448       -0.7380138500
 C          1.9500038944        0.3248614040        0.4908393004
 C          3.3421493511        0.1055146530        0.9174359812
 C          4.3503155510        0.5951055697        0.1745732657
 C          5.8088982632        0.3933087139        0.4640101339
 C          6.3446674763       -0.8633282007       -0.2365409276
 C          5.4820354032       -2.1067200841       -0.0200104695
 H          4.5138729916       -1.9576814438       -0.5034947617
 H          5.9729101640       -2.9360220952       -0.5339469184
 C          5.2602004754       -2.4768868688        1.4532057471
 H          5.4019883154       -3.5535232795        1.5684692145
 H          6.0078647407       -1.9837745626        2.0755267920
 C          3.8632063172       -2.1518934190        1.9854908333
 H          3.7453893607       -2.6454745109        2.9537328561
 H          3.1095599323       -2.5679592608        1.3122682383
 C          3.5573659464       -0.6628217141        2.1910052665
 H          4.3470468424       -0.2040054402        2.7894134371
 H          2.6176704053       -0.5886104287        2.7462161460
 H          7.3575349704       -1.0534593509        0.1231848248
 H          6.3973191797       -0.6654551744       -1.3097738946
 H          6.3559380176        1.2639534737        0.0982280674
 H          5.9529720026        0.3119300868        1.5396327839
 O          4.1504449536        1.3034346949       -0.9666643279
 C          2.8716308718        1.5256083612       -1.4500011665
 O          2.8324195005        2.1948120594       -2.5020906694
 O          0.9990213445       -0.0892167616        1.2013886441
 C          0.4072524820        1.2928260210       -1.3119379700
 C         -0.5113373593        1.8044736109       -0.2299960616
 C         -0.1521227190        2.9624833462        0.4560486834
 C         -0.9568955511        3.4693383420        1.4566610928
 C         -2.1492050469        2.8451238302        1.7805937174
 C         -2.5189778306        1.6928768980        1.0995174837
 C         -1.6996687071        1.1768936029        0.1047814449
 H         -1.9951749354        0.2698289520       -0.3942695695
 N         -3.7095196081        1.0233408050        1.4147614373
 S         -4.6228398269        0.3186684377        0.2078009363
 O         -4.5572333443        1.0740419904       -1.0223067586
 O         -5.9417393839        0.1718865137        0.7875065469
 C         -3.9219286879       -1.3006211416       -0.0295586751
 C         -3.4613663413       -2.0050572860        1.0646494486
 C         -2.9620720387       -3.2835267688        0.8742946569
 C         -2.9399920366       -3.8371929924       -0.3966238659
 C         -3.4099633880       -3.1181176464       -1.4849526306
 C         -3.9062666157       -1.8368953204       -1.3020236601
 H         -4.2702864333       -1.2380859284       -2.1218776642
 H         -3.3898895983       -3.5487550090       -2.4737051508
 H         -2.5506349757       -4.8326691465       -0.5412197290
 H         -2.5900198271       -3.8431324750        1.7172988966
 H         -3.4879209959       -1.5448771460        2.0381115469
 H         -4.2813206212        1.4647746406        2.1194449247
 H         -2.7829829063        3.2421439703        2.5591345596
 H         -0.6598248835        4.3628646227        1.9852625735
 H          0.7771750631        3.4535959964        0.1987184189
 H          0.5612519002        2.1151325240       -2.0309884626
 C         -0.1844893546        0.1333816373       -2.0999595335
 C          0.6993756903       -0.8401661328       -2.8195112915
 C         -0.0901861382       -1.2850375116       -1.6270796437
 H         -0.9394197257       -1.9336253590       -1.7849809565
 H          0.4291281953       -1.4665642669       -0.6999915440
 H          0.3953156924       -1.1811442306       -3.7976422029
 H          1.7676636685       -0.7169798211       -2.7136782674
 H         -1.1008466403        0.4184537148       -2.6093974988
