  62
        -98.93830716
 C         -1.7399746912       -0.1251957055        0.1896665364
 C         -2.8828548504       -0.9499751247        0.0420492289
 C         -4.0805084116       -0.2835966878       -0.4946398282
 C         -4.0306068951        1.0094517064       -0.8585495604
 C         -5.1576972599        1.8107327983       -1.4516665574
 C         -6.1202535544        2.3991406156       -0.4111439463
 C         -7.0456939743        1.3860536150        0.2638311771
 H         -7.8068298501        1.9554548037        0.8010270942
 H         -7.5572817688        0.7983122856       -0.4990172563
 C         -6.3420061078        0.4472067392        1.2537199167
 H         -5.3686427546        0.8643894725        1.5221483647
 H         -6.9271924668        0.3835491740        2.1739861260
 C         -6.1443811977       -0.9801967584        0.7431451733
 H         -7.1173162545       -1.4541827976        0.5953734888
 H         -5.6071613719       -1.5464973183        1.5083017947
 C         -5.3489328525       -1.0796308099       -0.5651025574
 H         -5.9610640979       -0.7482956070       -1.4036369493
 H         -5.0762455740       -2.1261991979       -0.7214133608
 H         -6.7392549626        3.1404070469       -0.9218802080
 H         -5.5355062782        2.9218632311        0.3492876850
 H         -4.6965921530        2.6354034062       -1.9993742794
 H         -5.7154117761        1.1939422498       -2.1568884396
 O         -2.9000914131        1.7561722695       -0.7417831171
 C         -1.7466060935        1.2177998765       -0.1987882891
 O         -0.7992372050        2.0251396994       -0.1121881169
 O         -2.9249245193       -2.1729943780        0.3286214713
 C         -0.4213466678       -0.6172217748        0.7612186144
 C          0.4658602261       -1.1891974971       -0.3136318288
 C         -0.0034094059       -2.1283314765       -1.2264196865
 C          0.8438679873       -2.6505996325       -2.1865810704
 C          2.1711878392       -2.2626136139       -2.2444047359
 C          2.6481476362       -1.3210225803       -1.3400353674
 C          1.7887189351       -0.7817328305       -0.3931860007
 H          2.1570444252       -0.0376852761        0.2953029712
 N          3.9804943137       -0.8936807700       -1.3809669462
 S          4.7873807948       -0.4774455724        0.0235275469
 O          6.1881337892       -0.5922015326       -0.3201138492
 O          4.3409884218       -1.2674082053        1.1467076470
 C          4.3867950111        1.2393231045        0.2664893884
 C          3.8836673348        1.6635898457        1.4799447560
 C          3.5844725804        3.0060758697        1.6493730187
 C          3.7946637465        3.8961170836        0.6079340470
 C          4.3054520762        3.4549119955       -0.6033721586
 C          4.6062156399        2.1141824320       -0.7788377211
 H          5.0056496790        1.7344963133       -1.7044443533
 H          4.4657354643        4.1513064960       -1.4106688880
 H          3.5560458345        4.9394276671        0.7415725012
 H          3.1843968856        3.3504599330        2.5895826652
 H          3.7282651590        0.9376430594        2.2631222888
 H          4.5712158720       -1.3778144713       -2.0404136311
 H          2.8334627885       -2.6822486311       -2.9863462682
 H          0.4702099687       -3.3790430593       -2.8905452491
 H         -1.0319848811       -2.4504471875       -1.1681133273
 H          0.0780384197        0.2865092689        1.1465145006
 C         -0.5883016991       -1.5672680286        1.9398507081
 C         -0.2840407656       -3.0305649519        1.8794623555
 C          0.6246637671       -2.1116088719        2.6362438562
 H          0.6247172626       -2.1560225320        3.7151814427
 H          1.5929581757       -1.8968664645        2.2057053572
 H         -0.9294858469       -3.6977135846        2.4302555255
 H          0.0696087473       -3.4422737990        0.9475599113
 H         -1.4212615292       -1.2791514995        2.5735967334
