  62
        -98.94055558
 C          0.1069841413       -1.8536091865       -0.1732795347
 C          1.0857897479       -1.2050252486       -0.9567120987
 C          2.3150908171       -0.7793868058       -0.2619379883
 C          2.4137295715       -0.9723354917        1.0657386014
 C          3.5569963463       -0.6306530832        1.9891768614
 C          4.2454019810        0.7270184858        1.7823209033
 C          5.6511924324        0.6158051092        1.1873767401
 H          6.2183214398        1.5058470409        1.4688008610
 H          6.1492415304       -0.2440400181        1.6402786620
 C          5.7124720594        0.4907861381       -0.3341299341
 H          5.4523903618        1.4505664795       -0.7855826960
 H          6.7482019643        0.2735080682       -0.6051953774
 C          4.8103060743       -0.5877912237       -0.9361681975
 H          4.8364652780       -1.4900374295       -0.3260224457
 H          5.2120613226       -0.8528116063       -1.9162691314
 C          3.3573133992       -0.1279055321       -1.1303784072
 H          3.0351984803       -0.3423082104       -2.1542124767
 H          3.2962109475        0.9572274832       -1.0093309482
 H          4.3320064653        1.2038243430        2.7604214471
 H          3.6172382859        1.3735317212        1.1710708973
 H          3.1267065356       -0.6757214729        2.9925806517
 H          4.2973634303       -1.4334631765        1.9316642843
 O          1.4301330064       -1.5812518486        1.7878389242
 C          0.2596217664       -2.0276395683        1.2015568200
 O         -0.5422260547       -2.5619665393        1.9917724006
 O          0.9445791321       -0.9891471814       -2.1913573476
 C         -1.1897167352       -2.2994568609       -0.8256907170
 C         -2.3419722696       -1.5787554714       -0.1702259105
 C         -3.5055605882       -2.2027885438        0.2579932686
 C         -4.4899788372       -1.4735979801        0.9035160305
 C         -4.3294857616       -0.1225378033        1.1481606876
 C         -3.1745705168        0.5149498869        0.7068342171
 C         -2.2119052799       -0.2093954071        0.0261987571
 H         -1.3167881728        0.2869362538       -0.3170908422
 N         -2.9760939695        1.8861016555        0.9210160647
 S         -1.4328363749        2.5007094371        1.1186825700
 O         -0.5510145137        1.5769923090        1.7937420120
 O         -1.6443070894        3.7727211914        1.7794920655
 C         -0.8798516047        2.8067271433       -0.5446510425
 C          0.3413755183        2.3175400295       -0.9611291516
 C          0.7574864419        2.5664841048       -2.2591193834
 C         -0.0508375449        3.3024889825       -3.1112546512
 C         -1.2720203725        3.7947094439       -2.6755375918
 C         -1.6941543771        3.5460669074       -1.3797448010
 H         -2.6354231355        3.9095598964       -1.0028840820
 H         -1.8964502861        4.3664457451       -3.3429596173
 H          0.2748762645        3.4896834848       -4.1222678123
 H          1.6996348960        2.1699137111       -2.6015342822
 H          0.9306496252        1.7334983050       -0.2696412690
 H         -3.6491964238        2.3298582071        1.5281922451
 H         -5.0844458822        0.4361498950        1.6800165547
 H         -5.3874740308       -1.9704196539        1.2397884296
 H         -3.6361106391       -3.2611460788        0.1029914554
 H         -1.1217859720       -1.9689107749       -1.8728648950
 C         -1.3171339959       -3.8074886245       -0.7943259160
 C         -2.1002272634       -4.5216733941       -1.8542944611
 C         -0.6051051278       -4.6163061299       -1.8356266266
 H         -0.1484054150       -5.5489023440       -1.5401320877
 H         -0.0469464876       -4.0754007332       -2.5856770263
 H         -2.6707562582       -5.3941268473       -1.5736889312
 H         -2.5595207712       -3.9218237516       -2.6251425242
 H         -1.3400593844       -4.2006106212        0.2160681682
