  62
        -98.94536577
 C         -1.9362877816       -1.0145424835       -0.0638463610
 C         -1.4355285637       -2.0149339181       -0.9353053785
 C         -0.3027182130       -2.8020468673       -0.4358159475
 C          0.1960534758       -2.5509664846        0.7877617828
 C          1.3441743650       -3.2674176187        1.4444362531
 C          2.7225152780       -2.7239544719        1.0451556114
 C          3.1749442738       -3.0784524953       -0.3713718473
 H          4.2363534623       -2.8327351587       -0.4400163198
 H          3.0776254422       -4.1534358041       -0.5282020267
 C          2.4275065650       -2.3277997424       -1.4819845718
 H          3.1426286391       -1.9579894234       -2.2211189749
 H          1.9325508507       -1.4438508520       -1.0705038843
 C          1.3970622723       -3.1659126137       -2.2400848929
 H          0.9008722571       -2.5115610615       -2.9621093282
 H          1.9055777965       -3.9572560001       -2.7963634455
 C          0.3181670627       -3.8073675506       -1.3573706278
 H         -0.4692413346       -4.1949016528       -2.0090071590
 H          0.7417771156       -4.6354893821       -0.7889983799
 H          2.7182056362       -1.6378139850        1.1599428192
 H          3.4510080678       -3.1329691008        1.7486128192
 H          1.2906134378       -4.3325055085        1.2174972120
 H          1.2197650746       -3.1330181868        2.5208147391
 O         -0.3196546308       -1.5944248312        1.6005115185
 C         -1.3619123458       -0.7758037499        1.1850517483
 O         -1.6661224160        0.1020015702        2.0145389932
 O         -1.9115412590       -2.2342774902       -2.0817230652
 C         -3.0116969102       -0.0815083835       -0.5952407095
 C         -2.5588755768        1.3424045890       -0.3802889433
 C         -3.3031293486        2.3137742008        0.2743214597
 C         -2.7742507244        3.5783384083        0.4714276546
 C         -1.4979253734        3.8925862735        0.0432087781
 C         -0.7444021135        2.9268106378       -0.6183676999
 C         -1.2930249522        1.6758938565       -0.8486018286
 H         -0.7097521781        0.9304676397       -1.3688559764
 N          0.5529761276        3.2241151161       -1.0634793845
 S          1.8060462370        2.1463683327       -1.2377068227
 O          2.8816785101        2.9428213778       -1.7877984975
 O          1.3914677233        1.0148218575       -2.0290493732
 C          2.3071325272        1.5805966645        0.3833427384
 C          1.3774304334        1.2962629541        1.3627022122
 C          1.8178241158        0.8180565397        2.5879725563
 C          3.1717034396        0.6297406802        2.8150900080
 C          4.0952505952        0.9222347649        1.8222640894
 C          3.6610904083        1.4005390272        0.5968459586
 H          4.3429637044        1.6438099150       -0.2016705255
 H          5.1486011363        0.7737050223        1.9971195364
 H          3.5061774610        0.2498799528        3.7674978507
 H          1.0842859306        0.5838258689        3.3432612285
 H          0.3226720435        1.4303626701        1.1817151806
 H          0.8955197030        4.1380598463       -0.8088174757
 H         -1.0811914966        4.8719361407        0.2220850840
 H         -3.3586208101        4.3258020801        0.9861765952
 H         -4.2834922423        2.0765499696        0.6530565990
 H         -3.0206505244       -0.2716516336       -1.6824536697
 C         -4.4201343296       -0.3627741462       -0.0973984272
 C         -4.8096779027       -1.7302636010        0.3768834241
 C         -4.7322728788       -0.5940085488        1.3496541222
 H         -5.6565534403       -0.1955060779        1.7420679893
 H         -3.9110517799       -0.5658541525        2.0474448695
 H         -5.7817687001       -2.1113992704        0.1017392324
 H         -4.0375064786       -2.4854501847        0.4095782605
 H         -5.1672131959        0.1721786063       -0.6762371612
