  62
        -98.94272792
 C         -2.4155299055       -0.8707808146        0.5055501910
 C         -2.5233996274        0.1809480117       -0.4364859584
 C         -3.5725309130        1.1733638459       -0.1653402114
 C         -4.3325543366        1.0664474985        0.9389788449
 C         -5.4231970947        2.0128349323        1.3614302405
 C         -6.7801113115        1.7357591007        0.6997592980
 C         -6.8716980660        2.1126228038       -0.7794858456
 H         -7.9272302570        2.0708460327       -1.0555136554
 H         -6.5413055971        3.1433255171       -0.9120704743
 C         -6.0802598907        1.1913564093       -1.7182687476
 H         -6.7009969272        0.9266033273       -2.5773060105
 H         -5.8400702432        0.2608119530       -1.1987681921
 C         -4.7885433711        1.8004760713       -2.2636980903
 H         -5.0266196293        2.6582579907       -2.8966554228
 H         -4.2925674729        1.0508128199       -2.8855692934
 C         -3.7967466473        2.2509514341       -1.1831538584
 H         -2.8373532425        2.4597206649       -1.6628177563
 H         -4.1528080470        3.1614912229       -0.7019958242
 H         -7.5319278058        2.3101262890        1.2458702362
 H         -7.0183422484        0.6765680891        0.8215061289
 H         -5.1188255794        3.0392229657        1.1548576542
 H         -5.5361896488        1.8938903708        2.4411165656
 O         -4.1752310157        0.0586542484        1.8377306371
 C         -3.2313780067       -0.9331981283        1.6390020313
 O         -3.2129827481       -1.8060695038        2.5298135916
 O         -1.7958413538        0.2999042790       -1.4572677053
 C         -1.3852694931       -1.9800077486        0.3568398709
 C         -0.0151458235       -1.4194209283        0.6539346682
 C          0.4531396535       -1.4165862594        1.9644993406
 C          1.6929969395       -0.8865402293        2.2696860079
 C          2.4884577828       -0.3411580270        1.2769739146
 C          2.0276048460       -0.3328662721       -0.0323296968
 C          0.7875285576       -0.8780125253       -0.3384741689
 H          0.4324096158       -0.8501843679       -1.3567051023
 N          2.8194858758        0.2430995404       -1.0413578104
 S          4.4052199308       -0.2824260317       -1.1989864439
 O          4.7613705184       -0.0169703791       -2.5758056848
 O          4.5560382851       -1.6469867627       -0.7483656739
 C          5.3299404730        0.8123315252       -0.1417227645
 C          6.1119875776        0.2929604751        0.8712701541
 C          6.8310121091        1.1629863679        1.6761160448
 C          6.7561282282        2.5295608245        1.4544545630
 C          5.9682056186        3.0350728349        0.4309803848
 C          5.2481558287        2.1706136465       -0.3779622101
 H          4.6284524530        2.5225468324       -1.1858043403
 H          5.9126735054        4.0983633553        0.2613358692
 H          7.3150319517        3.2048395586        2.0829534142
 H          7.4446841094        0.7719472403        2.4717241495
 H          6.1354227415       -0.7763041404        1.0094324592
 H          2.3597346613        0.2802237432       -1.9397882395
 H          3.4543974662        0.0774605002        1.5080687692
 H          2.0437833981       -0.8957390105        3.2904817651
 H         -0.1738912464       -1.8292653634        2.7426734784
 H         -1.6224025068       -2.7131044452        1.1393032073
 C         -1.4734670396       -2.6677031574       -0.9904061148
 C         -0.7641196401       -3.9723175717       -1.1892944831
 C         -2.2605453387       -3.9356773066       -1.1165998700
 H         -2.8253433555       -4.1033241951       -2.0215097849
 H         -2.7381066568       -4.3196192962       -0.2268604624
 H         -0.2980802410       -4.1676617181       -2.1431974289
 H         -0.2239370979       -4.3784398615       -0.3472003621
 H         -1.5112294061       -1.9811516496       -1.8263978807
