  62
        -98.93805528
 C          2.2668148919       -1.0558877828       -0.3022893978
 C          2.4537278804       -0.0827131645        0.7053758173
 C          3.3084472475        1.0729075918        0.3626139644
 C          3.8319352221        1.1485170271       -0.8752216944
 C          4.7545673569        2.1985667328       -1.4350176738
 C          6.1989248993        2.0467000829       -0.9313421050
 C          6.3322329059        1.7703574948        0.5638752624
 H          5.7835824624        0.8594943794        0.8100453082
 H          7.3881170833        1.5790204208        0.7724844937
 C          5.8730914959        2.9031890806        1.4788329996
 H          6.4482315947        3.8033426784        1.2507567779
 H          6.1113595978        2.6080584230        2.5038376777
 C          4.3836681805        3.2495704523        1.4197991742
 H          4.1529396354        3.8435969159        0.5394857781
 H          4.1621029658        3.8803150453        2.2856422412
 C          3.4463857650        2.0490565865        1.5060839229
 H          3.7116763876        1.4490818319        2.3838838084
 H          2.4305029854        2.4120542738        1.7041237059
 H          6.6565277811        1.2109553688       -1.4664581023
 H          6.7499651192        2.9531242737       -1.1876906087
 H          4.7500886584        2.0735288689       -2.5202140639
 H          4.3699283787        3.1900038793       -1.2149505323
 O          3.6008897192        0.1947159220       -1.8245401333
 C          2.8214419795       -0.9169549782       -1.5724764832
 O          2.6897530739       -1.6906011733       -2.5444604643
 H         -0.0677467002       -0.3999518460       -1.2005876605
 C         -0.6100080845       -0.8609817970       -0.3828834597
 C          0.0090030729       -1.8607233066        0.3574902950
 C         -0.7056153194       -2.4561274123        1.3885163944
 C         -1.9936045738       -2.0406058839        1.6796718565
 C         -2.5962413143       -1.0297500381        0.9544289282
 C         -1.8968397691       -0.4373176762       -0.0891230236
 N         -2.4945144338        0.5997320525       -0.8273396894
 S         -4.0338245742        0.3466741096       -1.4495324641
 O         -4.2690410331       -1.0515036448       -1.7270494015
 O         -4.1394799553        1.2514348811       -2.5735861916
 C         -5.1175982759        0.9040780969       -0.1516633991
 C         -6.0979098705        0.0625418009        0.3365680933
 C         -6.9351585352        0.5218637776        1.3415380964
 C         -6.7784933973        1.8073606802        1.8366792494
 C         -5.7907715753        2.6409732799        1.3332394589
 C         -4.9513290528        2.1885854890        0.3278627060
 H         -4.1736579110        2.8046775620       -0.0919598875
 H         -5.6716248859        3.6399462086        1.7208311115
 H         -7.4297656734        2.1621517399        2.6197778560
 H         -7.7038509114       -0.1242330184        1.7339742742
 H         -6.1779166494       -0.9310296670       -0.0748528839
 H         -1.8891796115        0.9943456380       -1.5325919475
 H         -3.5955246289       -0.6983844615        1.1843807568
 H         -2.5344672754       -2.5081012819        2.4881840351
 H         -0.2527056977       -3.2437644911        1.9677350170
 C          1.4092962551       -2.2764773589       -0.0263626264
 H          1.3481471127       -2.8256594993       -0.9782316303
 C          2.0802436880       -3.1613526811        1.0041448819
 C          1.8868673530       -4.6467093507        0.9695340434
 C          3.2020816565       -4.0526137855        0.5664222859
 H          4.0499173106       -4.1768070597        1.2232434043
 H          3.4612255108       -4.0423041427       -0.4827268784
 H          1.2557049177       -5.0516570511        0.1927837820
 H          1.8350049560       -5.1822678576        1.9054644412
 H          2.1728440032       -2.6763668704        1.9689896010
 O          1.9358307206       -0.1670418643        1.8492027576
