  62
        -98.94914767
 C         -2.0973395804       -0.3571357272        0.5658882512
 C         -1.3763481886        0.6006828918        1.3182901807
 C         -1.5859827472        2.0069599121        0.9563826012
 C         -2.4224613976        2.3058045034       -0.0534360481
 C         -2.7361937263        3.6948547838       -0.5284119376
 C         -1.8135242367        4.1300746929       -1.6738760883
 C         -0.3272196867        3.9050283310       -1.3955307595
 H         -0.1193823280        2.8325573907       -1.3629884199
 H          0.2267101731        4.3054515305       -2.2482842399
 C          0.1866522351        4.5561819501       -0.1039060798
 H         -0.5016964136        5.3380725109        0.2207244009
 H          1.1461338156        5.0331398290       -0.3154433205
 C          0.4241485948        3.5700598396        1.0414894098
 H          0.9909090035        2.7176332590        0.6574588492
 H          1.0392090461        4.0647773587        1.7983745394
 C         -0.8366033053        3.0456046911        1.7424311107
 H         -0.5260309551        2.5550600105        2.6697584204
 H         -1.4895743640        3.8824988018        2.0000309414
 H         -2.0812082081        3.5651934134       -2.5699572782
 H         -1.9911053655        5.1890281431       -1.8736248580
 H         -2.6427215947        4.3852967436        0.3078820824
 H         -3.7684274565        3.7071752652       -0.8837704168
 O         -3.0740862894        1.3601654043       -0.7761974578
 C         -2.8989643508        0.0083940940       -0.5151441781
 O         -3.5165353724       -0.7420240551       -1.2952151278
 O         -0.5972346582        0.2926552707        2.2616815601
 C         -1.8831017720       -1.8332495475        0.8694677107
 C         -1.0642534836       -2.4033072683       -0.2624558100
 C         -1.5153914855       -3.3670319176       -1.1527155798
 C         -0.7247900569       -3.7415122684       -2.2268098905
 C          0.5057607637       -3.1507519999       -2.4465922214
 C          0.9718177356       -2.1931021706       -1.5502917516
 C          0.2012700869       -1.8602825598       -0.4509028410
 H          0.5615147284       -1.1221237604        0.2467705989
 N          2.2116763262       -1.5682338321       -1.7366297625
 S          2.4824261386        0.0161778575       -1.2518253025
 O          1.2576467296        0.7711939990       -1.1490400914
 O          3.4590533884        0.5126393864       -2.2003847632
 C          3.2880077096       -0.1726619138        0.3260163668
 C          2.6411647509        0.1121361568        1.5107354474
 C          3.3225699617       -0.0701952442        2.7053359168
 C          4.6291522611       -0.5304969059        2.6974701557
 C          5.2673348498       -0.8098011464        1.4977959551
 C          4.5927548290       -0.6299434754        0.3024379057
 H          5.0537350080       -0.8210092058       -0.6523434747
 H          6.2847995793       -1.1661321177        1.4920568843
 H          5.1518136417       -0.6705503367        3.6306154853
 H          2.8169486927        0.1472428562        3.6326702373
 H          1.6196575614        0.4616927881        1.5071789783
 H          2.6641131453       -1.7727398625       -2.6149925529
 H          1.1009972027       -3.4205141404       -3.3058836520
 H         -1.0849823483       -4.4883873978       -2.9183507404
 H         -2.4896790260       -3.8078952364       -1.0211875491
 H         -1.2702974213       -1.8576659284        1.7819120802
 C         -3.1827468127       -2.5597522859        1.1307903916
 C         -3.1654389437       -3.8603803361        1.8755451414
 C         -3.7111529116       -2.6286342655        2.5312245921
 H         -4.7773653714       -2.5522633842        2.6826747529
 H         -3.1258127704       -2.1599656664        3.3087207217
 H         -3.8580657449       -4.6333127352        1.5793461818
 H         -2.2078538839       -4.2304411873        2.2090541506
 H         -3.9044850932       -2.4364784749        0.3323115122
