  62
        -98.94467828
 C         -2.0766028089       -0.3812871613       -0.1761144554
 C         -3.0654987792       -0.8714388110        0.7136353683
 C         -4.2472148592       -0.0204456904        0.9003747660
 C         -4.3096562366        1.1645081131        0.2660616559
 C         -5.4717943661        2.1117418548        0.3316721069
 C         -6.4783671044        1.8356590158       -0.7940178439
 C         -6.8742160862        0.3646103101       -0.9216787753
 H         -7.6102497021        0.2948653072       -1.7255366607
 H         -6.0014530332       -0.2132886223       -1.2340487058
 C         -7.4560673789       -0.2498999497        0.3590442758
 H         -7.7790202052        0.5416636888        1.0361904887
 H         -8.3414645017       -0.8327877210        0.0965677563
 C         -6.5051817008       -1.1928504877        1.0986634133
 H         -6.1065207880       -1.9325816387        0.3998953786
 H         -7.0821508751       -1.7335745817        1.8535546508
 C         -5.3266294779       -0.5236775018        1.8171135330
 H         -5.6946654812        0.2807724043        2.4572062537
 H         -4.8525804554       -1.2779970400        2.4518649625
 H         -7.3694653793        2.4403641097       -0.6158680317
 H         -6.0351490590        2.1545041214       -1.7403148425
 H         -5.9584257862        2.0149495724        1.3002988735
 H         -5.0920132058        3.1294654943        0.2263121314
 O         -3.3278576529        1.6170678639       -0.5533911892
 C         -2.1923762519        0.8588483894       -0.8042392704
 O         -1.3902983916        1.3963441798       -1.5914535854
 H          1.0807853793        0.3863483633       -1.5308380727
 C          1.2157291537        0.2571920451       -0.4689107446
 C          0.3365770805       -0.5398815338        0.2475499439
 C          0.5223067233       -0.6697957179        1.6214282873
 C          1.5532090536       -0.0081025003        2.2614477848
 C          2.4188489382        0.8011395866        1.5463259226
 C          2.2416939287        0.9369117665        0.1758387293
 N          3.1109283782        1.7607935889       -0.5554565215
 S          4.7481410925        1.6875603415       -0.2357455550
 O          5.0536802417        2.4682748247        0.9378137984
 O          5.3935714900        2.1102388478       -1.4588412571
 C          5.0846387048       -0.0356381308        0.0839354285
 C          5.5734664229       -0.4270976763        1.3134264716
 C          5.8009784074       -1.7741244632        1.5466182079
 C          5.5338948417       -2.7015152746        0.5518943126
 C          5.0460613642       -2.2921166171       -0.6799077755
 C          4.8174958800       -0.9469845209       -0.9186112584
 H          4.4440678639       -0.5953760916       -1.8668953692
 H          4.8405469542       -3.0152919160       -1.4527218060
 H          5.7075153726       -3.7500019549        0.7358887018
 H          6.1820549452       -2.0949940728        2.5027065402
 H          5.7662237184        0.3270120393        2.0590541196
 H          2.9141540604        1.7980627016       -1.5440120848
 H          3.2150979271        1.3423782793        2.0309955105
 H          1.6830774070       -0.1172749362        3.3273813561
 H         -0.1642904468       -1.2876936853        2.1829393326
 C         -0.8364255175       -1.2315008335       -0.4012951326
 H         -1.0248389408       -2.1647282142        0.1462658882
 C         -0.6256261415       -1.5602409461       -1.8640881655
 C          0.3148799234       -2.6658611546       -2.2372789859
 C         -1.1625648149       -2.8487589935       -2.4081225001
 H         -1.5712478478       -2.8542158952       -3.4076371667
 H         -1.6800096276       -3.5039220468       -1.7227602480
 H          0.9230878490       -2.5505519789       -3.1213299604
 H          0.7999040163       -3.1964951284       -1.4322641244
 H         -0.6766450729       -0.6938885606       -2.5122300325
 O         -2.9638108591       -1.9705081030        1.3209582519
