  62
        -98.94096282
 C         -2.0181911902       -0.7952612695       -0.3505870905
 C         -3.2413524104       -0.9057799393        0.3587213793
 C         -3.8386992303        0.3530673408        0.8152701190
 C         -3.1950024602        1.5138149707        0.5954498590
 C         -3.6509713701        2.8776884508        1.0380954987
 C         -4.6576142599        3.5410928708        0.0880828385
 C         -6.0640705300        2.9414257409        0.1097749283
 H         -6.4215224402        2.8946663010        1.1388823083
 H         -6.7150322898        3.6319026609       -0.4300910619
 C         -6.1701563800        1.5538793308       -0.5382054015
 H         -5.2898903699        1.3737082607       -1.1594058014
 H         -7.0395443799        1.5261015308       -1.1987940617
 C         -6.3186428503        0.4003049910        0.4537652886
 H         -6.3491451903       -0.5351675491       -0.1105239513
 H         -7.2634360704        0.4993088711        0.9926748484
 C         -5.1815856305        0.2983766310        1.4790138888
 H         -5.2712806105        1.0916530211        2.2210186287
 H         -5.2615605706       -0.6660016990        1.9866398189
 H         -4.2588523697        3.4993362606       -0.9280335314
 H         -4.7295783799        4.5929110308        0.3741733383
 H         -2.7565507401        3.5027984907        1.0856369088
 H         -4.0809062603        2.8122517409        2.0380894387
 O         -2.0058466101        1.5762622005       -0.0584448908
 C         -1.3937876901        0.4352125604       -0.5586805106
 O         -0.3256289000        0.6636180502       -1.1586792504
 O         -3.8047748905       -2.0061828893        0.5999108293
 C         -1.3515390303       -2.0786732997       -0.8222469803
 C         -0.1058706904       -2.2566306497        0.0088283200
 C         -0.2046571807       -2.8129432095        1.2812755800
 C          0.8948839091       -2.8675535195        2.1181693402
 C          2.1117557093       -2.3497543497        1.7103119104
 C          2.2163311695       -1.7914528198        0.4445698203
 C          1.1227622497       -1.7698395198       -0.4086209999
 H          1.2195801699       -1.3184279500       -1.3830903199
 N          3.4418054496       -1.2175585300        0.0509906205
 S          4.0145163996       -0.0199777799        1.1045846904
 O          5.0636549694       -0.5986645899        1.9104704307
 O          2.9169223795        0.5638836003        1.8409551402
 C          4.7019112599        1.1730137999       -0.0276895896
 C          3.8196145801        1.9307625399       -0.7761487898
 C          4.3291965803        2.8525804497       -1.6768257099
 C          5.7020447004        2.9982683296       -1.8145576096
 C          6.5726605402        2.2290745196       -1.0577263494
 C          6.0708603099        1.3049328197       -0.1543524794
 H          6.7061987298        0.6857513698        0.4573453208
 H          7.6385509602        2.3457033695       -1.1683496392
 H          6.0931589605        3.7171285395       -2.5170726097
 H          3.6515922005        3.4496503797       -2.2660379301
 H          2.7568338400        1.7922349300       -0.6393654800
 H          3.3906799098       -0.8513674801       -0.8907339696
 H          2.9734369091       -2.3415797797        2.3601057005
 H          0.8003997489       -3.3001467494        3.1030428002
 H         -1.1649127808       -3.1790843894        1.6175162499
 H         -2.0550140604       -2.8827876596       -0.5692878903
 C         -1.1082594500       -2.0915728598       -2.3162622102
 C         -0.7597714400       -3.3848242000       -2.9889309100
 C         -2.1031576599       -2.7609006799       -3.2145155203
 H         -2.3105265997       -2.3140990600       -4.1753049204
 H         -2.9647120101       -3.2195350197       -2.7519694404
 H         -0.0435456599       -3.3707819601       -3.7960128999
 H         -0.7078034902       -4.2674085699       -2.3696202099
 H         -0.6439690799       -1.1854940299       -2.6854958503
