  62
        -98.94098589
 C          2.5178249174        1.2815994371        0.3925529100
 C          2.8118417755        0.4766640739       -0.7351659132
 C          3.4654583914       -0.8088167241       -0.4491327942
 C          3.7307460376       -1.1661412425        0.8193911241
 C          4.3869079536       -2.4445297809        1.2645692568
 C          3.4170051883       -3.6277166629        1.3882267153
 C          2.9329762467       -4.2149879964        0.0617461581
 H          3.7917838500       -4.4326187828       -0.5742699263
 H          2.4464531161       -5.1651112378        0.2907763671
 C          1.9387055193       -3.3280769088       -0.7013441851
 H          1.5090024875       -2.5850516572       -0.0236337771
 H          1.1036363690       -3.9362027909       -1.0588143165
 C          2.5305503529       -2.6146065891       -1.9171674829
 H          2.8266722383       -3.3535445107       -2.6654004608
 H          1.7486730381       -1.9889343254       -2.3560796652
 C          3.7397445522       -1.7228252981       -1.6055998774
 H          4.6163714928       -2.3377397476       -1.4041252309
 H          3.9396904130       -1.1011143284       -2.4819175313
 H          2.5540877303       -3.3129204134        1.9801695937
 H          3.9323514384       -4.4155239899        1.9424976166
 H          5.1935766490       -2.7030674260        0.5781934065
 H          4.8158184125       -2.2468026977        2.2492005996
 O          3.4327016670       -0.3664032776        1.8770988566
 C          2.8057638386        0.8533510027        1.6921693283
 O          2.5698325569        1.4705372616        2.7500853689
 H          0.3587359254        1.0092902032       -1.2939873631
 C         -0.2609826972        1.5000298382       -0.5571242366
 C          0.3183764040        2.3956057856        0.3322058197
 C         -0.4941847973        3.0135147402        1.2742690024
 C         -1.8497217749        2.7357710131        1.3258411634
 C         -2.4187122638        1.8311759648        0.4468717669
 C         -1.6133474551        1.2090641990       -0.4977905172
 N         -2.1807998132        0.2487222156       -1.3707483512
 S         -2.5362827853       -1.2096594134       -0.5993918920
 O         -1.6313868593       -1.4555213685        0.5016520002
 O         -2.5665257454       -2.2092053077       -1.6447276994
 C         -4.1871096941       -0.9435375676        0.0093488867
 C         -5.1959093452       -0.7517164944       -0.9147673391
 C         -6.4848743527       -0.5245216287       -0.4600132437
 C         -6.7413633948       -0.4946074364        0.9029670025
 C         -5.7178424289       -0.6915704774        1.8174265815
 C         -4.4255896677       -0.9181104247        1.3690685515
 H         -3.5961854369       -1.0694504058        2.0414648264
 H         -5.9189666513       -0.6674931922        2.8763949561
 H         -7.7451072788       -0.3164555211        1.2551346883
 H         -7.2835172709       -0.3708221686       -1.1676247641
 H         -4.9511195940       -0.7875852455       -1.9631541903
 H         -1.5812440626        0.0532951477       -2.1619043932
 H         -3.4713015124        1.6022824184        0.4876182383
 H         -2.4678947983        3.2218730484        2.0648901790
 H         -0.0516425748        3.6974452872        1.9836653120
 C          1.8076374592        2.6245963881        0.3011190068
 H          2.0810071103        3.1592670704        1.2242157007
 C          2.2711587354        3.4750647828       -0.8732623194
 C          1.3989553144        3.8293713176       -2.0368388290
 C          1.7513772454        4.8744400062       -1.0243474063
 H          2.4414815295        5.6567102635       -1.3012692083
 H          0.9748898491        5.1885766616       -0.3430568238
 H          0.3868592511        3.4565540919       -2.0523559077
 H          1.8613011290        3.8689414782       -3.0113655125
 H          3.3221159973        3.3203241014       -1.0936969924
 O          2.5498288904        0.7892412868       -1.9264674753
