  62
        -98.94078469
 C         -1.6900583798       -0.5683882194        0.1626539297
 C         -2.8734995397       -1.2019607696        0.6225493096
 C         -4.1036882397       -0.8903972099       -0.1129162806
 C         -4.0594906897       -0.0387968500       -1.1530466407
 C         -5.2200971796        0.3535344497       -2.0266958509
 C         -6.0743783499        1.4934762696       -1.4555970012
 C         -6.9519653300        1.1127587296       -0.2625398412
 H         -7.6502297402        1.9368220695       -0.1030813814
 H         -7.5416496698        0.2306199095       -0.5139141112
 C         -6.1768602702        0.8632703499        1.0388293889
 H         -5.1751239202        1.2908804100        0.9528330190
 H         -6.6744957804        1.3786779499        1.8634254588
 C         -6.0551303200       -0.6089779101        1.4323279291
 H         -7.0464150199       -1.0134060802        1.6483433690
 H         -5.4593200901       -0.6712296299        2.3464331292
 C         -5.3874722097       -1.4939343001        0.3714804093
 H         -5.1507808595       -2.4577040500        0.8288172694
 H         -6.0684977195       -1.6599167803       -0.4630095108
 H         -6.7239655099        1.8477620294       -2.2593591713
 H         -5.4138416101        2.3173704697       -1.1751998312
 H         -5.8497376095       -0.5172555204       -2.2120392909
 H         -4.7951950096        0.6846187896       -2.9768857409
 O         -2.9108472497        0.5694466501       -1.5489677706
 C         -1.7049067498        0.3477335204       -0.8903128504
 O         -0.7597154398        1.0203622805       -1.3418398703
 O         -2.8991366697       -1.9913348795        1.6034496697
 C         -0.4001670198       -0.8747615491        0.9023769299
 C          0.3557987499        0.3942214910        1.2016868999
 C         -0.2232308304        1.3303122510        2.0547702197
 C          0.4294804194        2.5094939912        2.3552287597
 C          1.6798788894        2.7726280913        1.8246111898
 C          2.2709691197        1.8422270813        0.9774975100
 C          1.6080018999        0.6613557112        0.6711493300
 H          2.0580683201       -0.0259423388       -0.0242782198
 N          3.5615752597        2.0645306315        0.4878709702
 S          4.2121608400        1.2980451315       -0.8387447197
 O          5.4777326899        1.9755257217       -1.0354286696
 O          3.3275490702        1.2861769512       -1.9791114298
 C          4.5227900502       -0.3648803084       -0.2810460194
 C          4.9717777701       -0.5748612082        1.0076758407
 C          5.2251007103       -1.8720984081        1.4242227409
 C          5.0322036306       -2.9311122082        0.5501650609
 C          4.5895452307       -2.7031160085       -0.7435440891
 C          4.3334051106       -1.4079756186       -1.1656329393
 H          3.9772477207       -1.1831127987       -2.1590225494
 H          4.4408053110       -3.5271777486       -1.4233503091
 H          5.2267408007       -3.9401291082        0.8778351011
 H          5.5697224602       -2.0537221179        2.4294805909
 H          5.1075631399        0.2695371019        1.6623662206
 H          3.9461458195        2.9831355916        0.6443898901
 H          2.1930624492        3.6927878514        2.0588116298
 H         -0.0362883909        3.2315308012        3.0091273395
 H         -1.2012162204        1.1247271209        2.4687784096
 H         -0.7345750599       -1.3013882291        1.8633061599
 C          0.4600561404       -1.9381827591        0.2359773602
 C         -0.1616284592       -3.0445887793       -0.5607631498
 C          0.6593033207       -1.9966465592       -1.2475165198
 H          1.6349831908       -2.2711386991       -1.6203393496
 H          0.1598169006       -1.2546050294       -1.8512650899
 H          0.2486875809       -4.0383144892       -0.4650573796
 H         -1.2332454392       -3.0243181595       -0.6953912899
 H          1.3144320504       -2.2094153988        0.8494246903
