  62
        -98.94350214
 C          1.8456890100        0.8133471332       -0.7164675263
 C          2.1030500939        0.0923738318        0.4746521611
 C          3.5137876086        0.0133628542        0.8747582104
 C          4.4556259217        0.6277180303        0.1360032414
 C          5.9308854061        0.6603115031        0.4310453176
 C          6.6952346471       -0.5739099053       -0.0671845847
 C          6.4499179628       -1.8561916314        0.7290718296
 H          7.2053136074       -2.5784047768        0.4129649556
 H          6.6113287830       -1.6600855929        1.7895395506
 C          5.0596123787       -2.4733898907        0.5227590459
 H          4.6054894545       -2.0546952771       -0.3782498470
 H          5.1596398742       -3.5489492468        0.3605148183
 C          4.0993108112       -2.2792168553        1.6962581916
 H          4.4803312841       -2.8078415441        2.5728378040
 H          3.1364997908       -2.7207888774        1.4277238918
 C          3.8569533285       -0.8129027265        2.0773418247
 H          3.0052902304       -0.7712347769        2.7607120456
 H          4.7322054464       -0.4057298874        2.5831159829
 H          6.4411672874       -0.7418056461       -1.1163273299
 H          7.7609481792       -0.3387179913       -0.0172580739
 H          6.3299225770        1.5405766307       -0.0776895367
 H          6.0876836543        0.7785414297        1.5036272138
 O          4.1616311740        1.3317064947       -0.9903584399
 C          2.8582172619        1.4289526179       -1.4509356294
 O          2.7315993400        2.0892943299       -2.5028028344
 H         -2.0966258879        0.2256617854       -0.3616686441
 C         -1.7075950551        1.0912891760        0.1467777200
 C         -0.4516398936        1.5816694901       -0.1727797351
 C          0.0101885733        2.7152854809        0.4915836076
 C         -0.7571032850        3.3253400757        1.4640558570
 C         -2.0078474919        2.8277285983        1.7858080652
 C         -2.4846878746        1.7059034320        1.1199365612
 N         -3.7361205037        1.1641257112        1.4402896328
 S         -4.6983614164        0.4620078452        0.2710130109
 O         -4.6006245504        1.1561980409       -0.9919556715
 O         -6.0172890573        0.4208673922        0.8668006617
 C         -4.0888908591       -1.2029238973        0.1054302722
 C         -3.6061618797       -1.8631949855        1.2176478077
 C         -3.1661392588       -3.1699883783        1.0803293372
 C         -3.2234088580       -3.7945059227       -0.1562703881
 C         -3.7182822195       -3.1205316904       -1.2618970993
 C         -4.1559348021       -1.8117382442       -1.1323383098
 H         -4.5365620025       -1.2459496527       -1.9680590465
 H         -3.7622137885       -3.6078557468       -2.2231425318
 H         -2.8784512140       -4.8112749692       -0.2596244893
 H         -2.7762692158       -3.6953043614        1.9373651750
 H         -3.5674579011       -1.3485164188        2.1630652056
 H         -4.2728505758        1.6805908521        2.1209178929
 H         -2.6072505444        3.3016414709        2.5481916571
 H         -0.3812393900        4.1990987746        1.9751611372
 H          0.9862069030        3.1075587012        0.2386220413
 C          0.4213208989        0.9403213442       -1.2240973623
 H          0.4628364058        1.6179362727       -2.0899724253
 C         -0.0839465775       -0.4112791692       -1.6856840499
 C         -1.1078208217       -0.5074198215       -2.7751386367
 C          0.3115592222       -0.9062177603       -3.0431508782
 H          0.5385219127       -1.9545995516       -3.1644394880
 H          0.9233995291       -0.2534231651       -3.6490880784
 H         -1.4705835154        0.4144076987       -3.2048519983
 H         -1.8543526853       -1.2844604672       -2.7100306967
 H         -0.1251200457       -1.1358822384       -0.8802012531
 O          1.2065128758       -0.4519578305        1.1687382121
