  62
        -98.94092403
 C         -2.2782234017       -0.5419126186        0.1255881010
 C         -3.5550953538       -1.0627672685        0.4450316174
 C         -4.6299558137       -0.0751625732        0.6067429018
 C         -4.3454600664        1.2331272956        0.4713600515
 C         -5.3531675481        2.3419308603        0.5589119868
 C         -5.9394153282        2.6698529279       -0.8214879389
 C         -6.4215863455        1.4426070008       -1.5950456846
 H         -6.8422444551        1.7977279817       -2.5383225263
 H         -5.5607418046        0.8172566031       -1.8429089656
 C         -7.4668781455        0.5961752929       -0.8551423834
 H         -7.9148768880        1.1809185133       -0.0510064385
 H         -8.2661391806        0.3387531315       -1.5532236268
 C         -6.9309526594       -0.7193023050       -0.2872688859
 H         -6.3980092017       -1.2656570373       -1.0695091247
 H         -7.7843614912       -1.3313573918        0.0162591912
 C         -6.0039828316       -0.5926292204        0.9282613521
 H         -6.4799317636        0.0259157775        1.6916866130
 H         -5.8568438551       -1.5954391375        1.3397081079
 H         -6.7684914676        3.3669986041       -0.6873931325
 H         -5.1688682234        3.1676887583       -1.4148389276
 H         -6.1478220598        2.0504461431        1.2428899329
 H         -4.8538753288        3.2291301148        0.9519291256
 O         -3.1003495696        1.6974724475        0.1901885851
 C         -2.0374066338        0.8259664241        0.0009095750
 O         -0.9558462027        1.3863123554       -0.2633823857
 H          1.5521464300       -0.9745160026       -0.5674778262
 C          1.2907315571       -0.9384678758        0.4757578525
 C         -0.0098668149       -1.1817127178        0.8868894002
 C         -0.3033494513       -1.1268205658        2.2476442446
 C          0.6765813972       -0.8148952487        3.1686647913
 C          1.9680591496       -0.5440912442        2.7511695494
 C          2.2753158067       -0.6078780818        1.3977613118
 N          3.5967939828       -0.3851041472        0.9623229728
 S          3.8949497739        0.5696103254       -0.3990663674
 O          3.4206560952        1.9193297599       -0.1839307330
 O          3.4126820418       -0.1079141433       -1.5745921577
 C          5.6789841705        0.5425640177       -0.3885719943
 C          6.3171566070       -0.6200891724       -0.7774587537
 C          7.7017698880       -0.6647275240       -0.7527292190
 C          8.4218251422        0.4477661653       -0.3425072490
 C          7.7677721294        1.6081101281        0.0424727427
 C          6.3824833057        1.6585243262        0.0217577247
 H          5.8307405649        2.5401600838        0.3063066498
 H          8.3297647391        2.4724297180        0.3578777563
 H          9.4996070295        0.4107045937       -0.3251136518
 H          8.2140733323       -1.5643162899       -1.0535425233
 H          5.7164589772       -1.4557393114       -1.0961062322
 H          4.1867347940       -0.0617660999        1.7190821816
 H          2.7321970841       -0.2866676412        3.4693324003
 H          0.4333253819       -0.7717961151        4.2198195683
 H         -1.3169274553       -1.3241996459        2.5702564060
 C         -1.1232753583       -1.5059232839       -0.0774086025
 H         -1.5228126038       -2.4987798464        0.1786004042
 C         -0.6907896221       -1.5161329434       -1.5279154512
 C         -0.0383438841       -2.7335252444       -2.1090899813
 C         -1.4372527730       -2.3713763349       -2.5056734547
 H         -1.6106410268       -1.9862621535       -3.4994034974
 H         -2.2497900585       -2.9697637708       -2.1199101530
 H          0.0994557632       -3.5829240640       -1.4572678532
 H          0.7552602453       -2.5947777230       -2.8277917127
 H         -0.3519607861       -0.5437940022       -1.8709320262
 O         -3.7825392236       -2.2935322582        0.5933163278
