  62
        -98.93688732
 C          1.9584735673        1.1579314066       -0.0836637163
 C          2.6476684487        0.5005314043        0.9693740290
 C          3.3394191712       -0.7476087268        0.6279469017
 C          3.2696571755       -1.2187435374       -0.6295962853
 C          3.8512591361       -2.5080362755       -1.1469333206
 C          5.3876152459       -2.6237420630       -1.1294317485
 C          5.9567833631       -3.2944699870        0.1269027521
 H          5.1854045132       -3.9289449866        0.5651067976
 H          6.7753176641       -3.9541874600       -0.1678602392
 C          6.5086047225       -2.3468155352        1.1960416451
 H          6.6442492620       -2.9219279788        2.1144256155
 H          7.4923216215       -1.9901128675        0.8827085513
 C          5.6524849537       -1.1181927282        1.5032887368
 H          5.7534594329       -0.3886401385        0.6963929020
 H          6.0497390702       -0.6421462055        2.4018015835
 C          4.1527419551       -1.4125660193        1.7002828527
 H          3.9677537587       -2.4857933111        1.7090304292
 H          3.8123131734       -0.9968356260        2.6506489297
 H          5.8276665817       -1.6367328251       -1.2687892154
 H          5.6670015288       -3.2274284839       -1.9943644420
 H          3.4981362320       -2.5913903580       -2.1770875404
 H          3.4176309703       -3.3360060838       -0.5808768885
 O          2.5919393540       -0.5649445884       -1.6104282693
 C          1.9209225558        0.6243646145       -1.3715465139
 O          1.3534208137        1.0790649492       -2.3872773737
 O          2.6784106861        0.9412297862        2.1491286006
 C          1.2169711968        2.4334637793        0.2870442125
 C         -0.2344076979        2.1057940644        0.5437278773
 C         -0.7790901703        2.2032563787        1.8187280568
 C         -2.0925042437        1.8361076291        2.0556060758
 C         -2.8829881423        1.3476752893        1.0301636643
 C         -2.3435398999        1.2396886122       -0.2443336782
 C         -1.0384568004        1.6352036654       -0.4852571436
 H         -0.6256453522        1.5311385046       -1.4780700616
 N         -3.1277707580        0.6737899097       -1.2825564976
 S         -3.2133345121       -1.0091299191       -1.1671136886
 O         -1.9923153631       -1.5645983908       -0.6238711382
 O         -3.6018025218       -1.4736729527       -2.4811543738
 C         -4.5561001633       -1.2685205696       -0.0279121151
 C         -4.2951071626       -1.7547243914        1.2380131119
 C         -5.3519824038       -1.9342214182        2.1169476243
 C         -6.6430800334       -1.6254564675        1.7162257750
 C         -6.8883767328       -1.1397900900        0.4402523359
 C         -5.8364992780       -0.9582717889       -0.4434339340
 H         -5.9798939878       -0.5900901823       -1.4455058863
 H         -7.8937700360       -0.9020442694        0.1323297534
 H         -7.4629526910       -1.7650831748        2.4029502007
 H         -5.1626068218       -2.3114544818        3.1090292811
 H         -3.2739926259       -1.9761295905        1.5049248829
 H         -2.7593352150        0.8995324258       -2.1978293331
 H         -3.9032306599        1.0484850846        1.2070576013
 H         -2.5014777080        1.9203384119        3.0506925155
 H         -0.1559279880        2.5484880954        2.6307110307
 H          1.6606554121        2.7578839354        1.2378694320
 C          1.3713469598        3.5529142504       -0.7218531547
 C          1.1231210292        4.9635296138       -0.2814033721
 C          2.5178176053        4.5076188454       -0.5857514071
 H          2.9966882428        4.8663089148       -1.4844270230
 H          3.1975768802        4.3570417002        0.2401800577
 H          0.6413284252        5.6398595323       -0.9704655013
 H          0.8576667297        5.1242985330        0.7523649873
 H          1.0741109431        3.2769582310       -1.7249994191
