  62
        -98.93731039
 C          1.8357511503       -0.6596384836       -0.8866882293
 C          2.2119567727       -0.3859660918        0.4477198150
 C          3.6584065379       -0.4152498513        0.7476819314
 C          4.5202042637       -0.7158179438       -0.2417992340
 C          6.0237949230       -0.7631384666       -0.1827651493
 C          6.6587767967        0.6373998004       -0.1875597973
 C          5.9721267799        1.6585764981        0.7159967520
 H          6.4382940633        2.6303951099        0.5326354256
 H          4.9225709822        1.7444530633        0.4283006219
 C          6.0659521092        1.3708977069        2.2124853969
 H          7.1179979757        1.3365384032        2.5046304933
 H          5.6039855013        2.2130699311        2.7340665471
 C          5.3879373451        0.0856121716        2.6908980702
 H          5.3342932370        0.1341199070        3.7825075369
 H          5.9903375377       -0.7862963531        2.4507163241
 C          3.9578872153       -0.1065076182        2.1948869068
 H          3.4966434664       -0.9178151944        2.7708326635
 H          3.3709721811        0.7869764315        2.4366945779
 H          7.7078100469        0.5423271548        0.0976462221
 H          6.6208616272        1.0207870722       -1.2102440745
 H          6.3454553157       -1.3330132696        0.6837301515
 H          6.3564326390       -1.2980849188       -1.0750506697
 O          4.1067040099       -0.9877191234       -1.5136168678
 C          2.7737304904       -0.9616251530       -1.8717060291
 O          2.5525992988       -1.2165727942       -3.0738412554
 O          1.3828690570       -0.1179973217        1.3561920003
 C          0.3711984769       -0.6338832639       -1.2797727728
 C         -0.2478775389        0.7049565530       -0.9581118269
 C          0.4763300602        1.8696642931       -1.1990467488
 C         -0.0630932843        3.1093704313       -0.9179060977
 C         -1.3470542014        3.2172475926       -0.4131985099
 C         -2.0869748787        2.0638606365       -0.1883007904
 C         -1.5350425090        0.8180307500       -0.4555486835
 H         -2.1265108572       -0.0636657671       -0.2731989138
 N         -3.3896136186        2.1366417306        0.3264899770
 S         -4.5825571779        1.1330375758       -0.2796302899
 O         -4.3731516652        0.8389849491       -1.6780343808
 O         -5.8234304776        1.8039738893        0.0472542392
 C         -4.4726347978       -0.3578397248        0.6872617082
 C         -4.1678859475       -0.2710408453        2.0312305145
 C         -4.1339383062       -1.4333136313        2.7850578993
 C         -4.4130624749       -2.6542400177        2.1897025081
 C         -4.7235253121       -2.7237068837        0.8405151333
 C         -4.7540255140       -1.5653121492        0.0794852339
 H         -4.9782727073       -1.5753362638       -0.9753122027
 H         -4.9402001857       -3.6738227535        0.3782160903
 H         -4.3869049442       -3.5568580132        2.7797149708
 H         -3.8890286096       -1.3836217242        3.8338549719
 H         -3.9529692400        0.6924777400        2.4621457149
 H         -3.7342817517        3.0725443363        0.4832764131
 H         -1.7717532468        4.1855531093       -0.1955513648
 H          0.5172203484        4.0015387448       -1.1003773543
 H          1.4761251127        1.7889534967       -1.6043157452
 H          0.3461316067       -0.7628335076       -2.3725981886
 C         -0.3534581469       -1.7988221459       -0.6360795979
 C         -1.5159550865       -2.4474640924       -1.3235252972
 C         -0.2018642353       -3.1623776138       -1.2379005669
 H         -0.1185448518       -4.0120477595       -0.5773272088
 H          0.3990961290       -3.2432107775       -2.1322731078
 H         -2.3338154594       -2.8072690880       -0.7175220575
 H         -1.8193695829       -2.0482334752       -2.2800261191
 H         -0.3732237552       -1.7261725904        0.4454318507
