  62
        -98.94044490
 C          1.9825968851        1.4644732976        0.4526810462
 C          2.3473410134        0.8792283491       -0.7847702305
 C          3.1967569789       -0.3210957064       -0.7019318577
 C          3.5650962975       -0.7956209821        0.5011072036
 C          4.3597611098       -2.0487627474        0.7257971925
 C          3.4374930525       -3.2652497081        0.8904670438
 C          2.3679942059       -3.3777053521       -0.1962538961
 H          1.7876477586       -4.2808007768        0.0054512431
 H          1.6859915431       -2.5281564292       -0.1142549710
 C          2.9220969419       -3.4363123447       -1.6266112776
 H          2.4038403909       -4.2277662536       -2.1723243983
 H          3.9806340143       -3.6977245217       -1.6050694859
 C          2.7364663959       -2.1469728400       -2.4287362678
 H          1.6886027303       -1.8375359506       -2.3870148622
 H          2.9693391747       -2.3608654877       -3.4754051611
 C          3.6095035950       -0.9610737880       -1.9983107817
 H          4.6554287067       -1.2716796895       -1.9582291800
 H          3.5111716731       -0.1839602913       -2.7621974535
 H          4.0515773790       -4.1674109687        0.8935950873
 H          2.9385132834       -3.1910451179        1.8594423682
 H          5.0347097896       -2.2017991609       -0.1139868365
 H          4.9490707386       -1.9241999112        1.6356466220
 O          3.2004204097       -0.2061125915        1.6672436002
 C          2.4070918584        0.9277852423        1.6728538319
 O          2.1523788975        1.3655651309        2.8116043327
 H         -0.1721022678        1.2606435229       -1.3174897280
 C         -0.8409683189        1.5618305197       -0.5246838159
 C         -0.3489864419        2.3303416980        0.5220052346
 C         -1.2210625288        2.7106489356        1.5346215639
 C         -2.5544020517        2.3392307953        1.4926007972
 C         -3.0426564579        1.5792166740        0.4451015100
 C         -2.1754790154        1.1866171573       -0.5670874905
 N         -2.6536213304        0.3982393420       -1.6283448778
 S         -3.6079058962       -0.9191728554       -1.2399848485
 O         -3.3933305301       -1.8755404295       -2.3024918095
 O         -4.9697597132       -0.4851833695       -1.0509738475
 C         -2.9611966975       -1.5399897650        0.3038518208
 C         -3.7749345313       -1.5858948362        1.4173016543
 C         -3.2513917204       -2.0514540241        2.6127974103
 C         -1.9278501990       -2.4579148636        2.6742228897
 C         -1.1234374838       -2.4091739159        1.5459442347
 C         -1.6420223821       -1.9459191761        0.3480705454
 H         -1.0399620669       -1.8998628974       -0.5461977033
 H         -0.0932871640       -2.7246651375        1.5973782382
 H         -1.5167402673       -2.8151799812        3.6051174209
 H         -3.8741817520       -2.0924937082        3.4917267791
 H         -4.7973072299       -1.2573230237        1.3251638863
 H         -1.9414510187        0.1518698774       -2.3002299296
 H         -4.0786550215        1.2859180438        0.3928744688
 H         -3.2209828732        2.6433462078        2.2848359804
 H         -0.8445013514        3.2898515544        2.3648063090
 C          1.1099714341        2.7061508501        0.5639497515
 H          1.3186147007        3.1114483689        1.5660398966
 C          1.4836099309        3.7847283773       -0.4451842142
 C          0.5919418617        4.2308990820       -1.5612877950
 C          0.8139879511        5.1257785213       -0.3816007336
 H          1.4156080053        6.0133710886       -0.5056575392
 H         -0.0015478691        5.2379269832        0.3171260357
 H         -0.3735261692        3.7623194927       -1.6697096528
 H          1.0588944131        4.4816305861       -2.5017487275
 H          2.5479934422        3.7856040394       -0.6574060090
 O          1.9892529401        1.3110723569       -1.9118657562
