  62
        -98.93821618
 C         -2.6740353441       -1.2003853327        0.2245294549
 C         -3.0779376917       -0.2605125680        1.2078727814
 C         -4.2782989676        0.5245951798        0.9056799134
 C         -4.9384938755        0.3105743585       -0.2466425009
 C         -6.1952972931        1.0081888080       -0.6912511568
 C         -5.9507705972        2.3637338574       -1.3682490120
 C         -5.5215069038        3.4918625917       -0.4293367980
 H         -5.5986872635        4.4238777083       -0.9927802391
 H         -6.2224422432        3.5563139397        0.4035330995
 C         -4.0899526046        3.3582617488        0.1087357883
 H         -3.5337251238        2.6464393979       -0.5057021312
 H         -3.5783778020        4.3197489729        0.0254190544
 C         -3.9996708426        2.9233844084        1.5715809176
 H         -2.9433478490        2.8235331471        1.8342097125
 H         -4.4348562781        3.6945794801        2.2111446752
 C         -4.6911639314        1.5883952318        1.8773964121
 H         -5.7737409218        1.7138575502        1.8668909769
 H         -4.3853133128        1.2637656446        2.8750414790
 H         -5.1981068695        2.2332619393       -2.1491549188
 H         -6.8845463594        2.6586380553       -1.8525709812
 H         -6.8617194202        1.1408013534        0.1615723585
 H         -6.6797941347        0.3457889570       -1.4118380099
 O         -4.5321674414       -0.6107387650       -1.1572267869
 C         -3.3818954980       -1.3701354071       -0.9664122721
 O         -3.1306324758       -2.1357438853       -1.9139244293
 O         -2.4646491386       -0.0964462836        2.2971983978
 C         -1.4278310872       -2.0089474024        0.5372508789
 C         -0.1952517710       -1.3249195320        0.0030812070
 C         -0.0975558660       -0.9470161683       -1.3326360641
 C          1.0461193068       -0.3270006413       -1.8019802696
 C          2.1082903524       -0.0638800511       -0.9540786849
 C          2.0197556950       -0.4320360093        0.3812951111
 C          0.8722270017       -1.0614888120        0.8485244297
 H          0.8024695775       -1.3371479678        1.8923691571
 N          3.0831236617       -0.1479830922        1.2516839837
 S          4.6470530064       -0.5258900588        0.7770329603
 O          4.6653750999       -1.6559016309       -0.1221233424
 O          5.3875582695       -0.6729770671        2.0106841116
 C          5.2076327433        0.9386061945       -0.0655196062
 C          5.0987815977        2.1501432631        0.5886101284
 C          5.5447588581        3.2967057186       -0.0489644320
 C          6.0922637538        3.2126520122       -1.3206273057
 C          6.1975307687        1.9883013447       -1.9624681163
 C          5.7520322370        0.8375319704       -1.3307183837
 H          5.8082654700       -0.1348073756       -1.7938372710
 H          6.6234453920        1.9249668436       -2.9509429013
 H          6.4387253077        4.1068730018       -1.8143099816
 H          5.4638971612        4.2507776090        0.4466154314
 H          4.6696863743        2.1737891215        1.5764515710
 H          2.9152712998       -0.4156647985        2.2105130961
 H          2.9995783071        0.4207284778       -1.3177757254
 H          1.1109800369       -0.0423387524       -2.8413195050
 H         -0.9252285148       -1.1499013804       -1.9957104030
 H         -1.3594488873       -1.9926158962        1.6370135600
 C         -1.5306197692       -3.4686831364        0.1181543258
 C         -0.7340312211       -4.0798048754       -0.9910138062
 C         -0.4111105101       -4.4174699864        0.4316917038
 H         -0.6525050421       -5.4021130030        0.8023503268
 H          0.4940596216       -3.9988520593        0.8470186592
 H         -1.2229979503       -4.8197597535       -1.6058365186
 H         -0.0429739178       -3.4544489533       -1.5335196025
 H         -2.5381484041       -3.8517772585        0.2456258275
