  62
        -98.93532123
 C         -1.3433998644       -1.7882554212        0.4102452647
 C         -1.8537741451       -1.1956931837       -0.7670841723
 C         -2.9201808334       -0.1821238004       -0.5999198830
 C         -3.3147816672        0.1551174282        0.6411762998
 C         -4.3434197272        1.1728537175        1.0610321157
 C         -3.8599472970        2.6238217500        0.9127938985
 C         -3.1545362140        2.9345039675       -0.4041845933
 H         -2.7823961881        3.9608674750       -0.3492739764
 H         -2.2853713524        2.2838512938       -0.5124576486
 C         -4.0293141568        2.8168707543       -1.6498509557
 H         -4.8977994183        3.4704589223       -1.5437994610
 H         -3.4404195708        3.1840138687       -2.4946177894
 C         -4.5155088583        1.4055001968       -1.9900124118
 H         -4.8754320271        1.4255138118       -3.0227937818
 H         -5.3639575842        1.1187046919       -1.3743627302
 C         -3.4339434528        0.3319761411       -1.9238606441
 H         -2.5569674941        0.6717185234       -2.4874833964
 H         -3.7902900480       -0.5555674737       -2.4606907470
 H         -3.1620356689        2.8382158208        1.7258894415
 H         -4.7206107649        3.2845688985        1.0294132257
 H         -5.2663796353        1.0187928981        0.5094975462
 H         -4.5531717063        0.9832655189        2.1162081197
 O         -2.7629253994       -0.4140567624        1.7517620560
 C         -1.7942492272       -1.3929965656        1.6731882779
 O         -1.4176416408       -1.8331544936        2.7760045518
 O         -1.4566796003       -1.4754845854       -1.9296853175
 C         -0.2693523473       -2.8674030084        0.4114002279
 C          1.0885037765       -2.2166904397        0.3643249981
 C          2.0219049987       -2.4012024994        1.3762946773
 C          3.2344083734       -1.7321996883        1.3467085156
 C          3.5330220148       -0.8575386327        0.3173537278
 C          2.6034282728       -0.6672417879       -0.6971730817
 C          1.3988709278       -1.3510288293       -0.6761055099
 H          0.6782003959       -1.2014265807       -1.4669140222
 N          2.8686633632        0.2739193015       -1.7145926695
 S          3.1660884753        1.8260480254       -1.1493751391
 O          2.6493405743        2.7207442612       -2.1609070659
 O          4.5707569799        1.9598620580       -0.8540496655
 C          2.2269139567        1.9584365951        0.3649698047
 C          2.8848785722        2.2006989569        1.5532476789
 C          2.1536882502        2.2453048570        2.7293841363
 C          0.7840725793        2.0364258334        2.6982025858
 C          0.1370410138        1.7956871826        1.4962183660
 C          0.8611621623        1.7581652672        0.3164836187
 H          0.3787141444        1.5717200805       -0.6308187609
 H         -0.9269142783        1.6213972323        1.4776339012
 H          0.2128677181        2.0530733435        3.6130081344
 H          2.6531203311        2.4332224953        3.6659975378
 H          3.9530097494        2.3434197274        1.5328314900
 H          2.1459318904        0.2953239235       -2.4210330755
 H          4.4605121071       -0.3084453735        0.2884431945
 H          3.9494598385       -1.8839157653        2.1404428995
 H          1.7833967135       -3.0567739230        2.2006762095
 H         -0.3672087725       -3.3648173030        1.3883115261
 C         -0.4856262815       -3.9224376758       -0.6658840950
 C          0.4953288042       -4.2057948189       -1.7609769013
 C          0.3268611878       -5.1834541011       -0.6397945299
 H         -0.1658899694       -6.1235729636       -0.8361492918
 H          1.1200763189       -5.2441930324        0.0903245707
 H          0.0985221662       -4.4552984359       -2.7335270291
 H          1.4068177487       -3.6301855254       -1.7999000572
 H         -1.5331216209       -4.0291089870       -0.9274236484
