  62
        -98.94118002
 C         -1.9072651295       -1.5555044017        0.1809903726
 C         -2.5749757491       -0.6885101340        1.0862623950
 C         -3.4994664075        0.2859894024        0.4975452508
 C         -3.6893391886        0.3017234711       -0.8338889488
 C         -4.6404030280        1.1943623667       -1.5846212840
 C         -4.0833433253        2.5892763884       -1.9000026568
 C         -3.9650293922        3.5284101216       -0.6990891188
 H         -3.7726856300        4.5286752983       -1.0922397414
 H         -4.9189199821        3.5640971716       -0.1721648859
 C         -2.8439444766        3.1580413767        0.2820372146
 H         -2.2784773193        4.0570196812        0.5386170943
 H         -2.1534263034        2.4661593731       -0.2065381813
 C         -3.3255243041        2.5335213018        1.5919452902
 H         -3.9122020708        3.2649768884        2.1518084366
 H         -2.4508466558        2.2708683085        2.1924531797
 C         -4.1706514003        1.2658410856        1.4119436119
 H         -4.2817593603        0.7861714357        2.3873336025
 H         -5.1599469563        1.5228353456        1.0335494703
 H         -4.7533654606        3.0492796235       -2.6300717068
 H         -3.1051310321        2.4771183224       -2.3737062257
 H         -5.5688580797        1.2922252189       -1.0209192323
 H         -4.8591217027        0.6900843987       -2.5285220285
 O         -3.0320719306       -0.5423846611       -1.6705890603
 C         -2.1113028350       -1.4724240116       -1.1968901564
 O         -1.5696475898       -2.1337336602       -2.1030097705
 O         -2.4151798925       -0.7406543819        2.3340681029
 C         -0.9744274274       -2.5849918927        0.7957160972
 C          0.4517369936       -2.0983912802        0.8292039783
 C          1.1984473184       -2.1491942382        2.0003592195
 C          2.5102459681       -1.7068918463        2.0202485022
 C          3.1005338891       -1.1993362041        0.8770373348
 C          2.3564608411       -1.1294960643       -0.2944568271
 C          1.0433777536       -1.5777055143       -0.3135125748
 H          0.4740467659       -1.5330380586       -1.2305104487
 N          2.9371009950       -0.5947125139       -1.4559941040
 S          3.8428381301        0.8026794618       -1.3045873386
 O          3.7057134667        1.4878062472       -2.5705304939
 O          5.1902761946        0.4620458312       -0.9199376775
 C          3.0720763320        1.7430113214        0.0028641053
 C          1.7269367247        2.0373945585       -0.1011570965
 C          1.1173225889        2.7533923915        0.9158973728
 C          1.8594733024        3.1646001540        2.0125933392
 C          3.2104108498        2.8675960739        2.0992017418
 C          3.8243463801        2.1476210414        1.0868376428
 H          4.8700938356        1.8878944587        1.1162594275
 H          3.7848919306        3.1895725474        2.9526759714
 H          1.3780119329        3.7189956296        2.8025306678
 H          0.0651454133        2.9807675790        0.8526034206
 H          1.1729041552        1.7067901715       -0.9660924968
 H          2.3080195757       -0.5499391701       -2.2440611225
 H          4.1240385367       -0.8609734777        0.8704848680
 H          3.0799504439       -1.7571927354        2.9351856566
 H          0.7406562377       -2.5296890238        2.9014145389
 H         -1.3139797060       -2.6729872690        1.8398373206
 C         -1.1104894007       -3.9629754472        0.1608521325
 C         -0.0566867199       -4.5948832561       -0.6932327479
 C         -0.3078309299       -5.1154295442        0.6882696419
 H         -0.7907896135       -6.0738561391        0.8031410373
 H          0.4339260478       -4.8992169910        1.4422965895
 H         -0.3846158966       -5.1782121170       -1.5402162498
 H          0.8547449748       -4.0473133948       -0.8747236902
 H         -2.1381010719       -4.1753477173       -0.1178549745
