  62
        -98.94354697
 C          1.8069278144       -0.5450034417       -0.3431111528
 C          2.9579868823       -0.6230498721       -1.1620416605
 C          4.2399945208       -0.7530414732       -0.4570920171
 C          4.2480786346       -0.8041514918        0.8877886541
 C          5.4855447612       -0.8767838181        1.7339056261
 C          5.9791155201        0.5256615053        2.1163786742
 C          6.0826614089        1.4879937618        0.9331097007
 H          5.0806672448        1.6834442959        0.5440944037
 H          6.4679858945        2.4352660125        1.3165892544
 C          6.9821164639        0.9951843857       -0.2091084693
 H          7.6358042070        0.1999147953        0.1508602607
 H          7.6218381916        1.8193763524       -0.5317896204
 C          6.2263714428        0.5075580411       -1.4466314509
 H          6.9468974477        0.3894794845       -2.2604051621
 H          5.5043638789        1.2668241515       -1.7581883765
 C          5.4863005760       -0.8273578677       -1.2938028260
 H          5.1597997283       -1.1411596042       -2.2896961254
 H          6.1693923583       -1.5838760396       -0.9024024621
 H          5.2833586791        0.9511746153        2.8431992258
 H          6.9550688950        0.4296596692        2.5956374112
 H          5.2476029706       -1.4290768477        2.6444420552
 H          6.2617547374       -1.4104918045        1.1890121703
 O          3.1196470623       -0.7452870043        1.6398001222
 C          1.8722594211       -0.6035006791        1.0491949296
 O          0.9247902633       -0.5465345951        1.8545472930
 O          2.9153609056       -0.5802139909       -2.4217316814
 C          0.4473761643       -0.3933103961       -0.9989092890
 C         -0.2359594672        0.8654390370       -0.5247091181
 C          0.4994775063        2.0447594794       -0.4330388656
 C         -0.0907160489        3.2152650978        0.0002876805
 C         -1.4338193899        3.2414762728        0.3330385188
 C         -2.1817579318        2.0760814315        0.2294204017
 C         -1.5815762945        0.8975291521       -0.1942254724
 H         -2.1801841126        0.0052275580       -0.2675333201
 N         -3.5416623505        2.0658676186        0.5699382741
 S         -4.6311927518        1.1839529754       -0.3407670752
 O         -4.2586072913        1.1516206459       -1.7357359959
 O         -5.9174307812        1.7789234645       -0.0440304438
 C         -4.5898772570       -0.4580612894        0.3457798523
 C         -4.4270585871       -0.6177376320        1.7074896539
 C         -4.4401645023       -1.8985875041        2.2361791617
 C         -4.6241360114       -2.9909980875        1.4021506819
 C         -4.7929009508       -2.8133229956        0.0378003404
 C         -4.7758651422       -1.5350365238       -0.4982275794
 H         -4.8907413593       -1.3518281357       -1.5548130115
 H         -4.9354764574       -3.6640613961       -0.6097336231
 H         -4.6340609020       -3.9864279381        1.8174982950
 H         -4.3046905449       -2.0408323489        3.2962881385
 H         -4.2814325646        0.2510938114        2.3274493534
 H         -3.9202395200        2.9595830737        0.8472203768
 H         -1.8978635734        4.1555136206        0.6714560143
 H          0.4966516979        4.1182879767        0.0743773624
 H          1.5472681061        2.0289336858       -0.7011659438
 H          0.6512813745       -0.2830920468       -2.0751188290
 C         -0.3776828796       -1.6457844059       -0.7878511393
 C         -1.3955244104       -2.0656435304       -1.8044471201
 C         -0.1187172912       -2.8363153080       -1.6599902113
 H         -0.1565633822       -3.8192633604       -1.2154771763
 H          0.6341007412       -2.7325150738       -2.4278038414
 H         -2.3101255997       -2.5205176306       -1.4552733515
 H         -1.5207741671       -1.4402288985       -2.6758115616
 H         -0.5940245264       -1.8281851717        0.2590399166
