  62
        -98.94016456
 C          1.7772204432       -0.8772296868       -0.7522608507
 C          2.0749418002        0.4586881240       -0.3849809466
 C          3.5059126695        0.7815112169       -0.2709512574
 C          4.4335800543       -0.1420579335       -0.5769586239
 C          5.9254864337        0.0447671481       -0.5223633902
 C          6.5281471526       -0.1659802863        0.8734373524
 C          6.2375805746        0.9455546779        1.8828066114
 H          6.5069562127        1.9088920849        1.4486585254
 H          6.8935384626        0.7795366129        2.7396532114
 C          4.7846523526        0.9905227632        2.3766183339
 H          4.7718536354        1.1059215133        3.4627925653
 H          4.2927071557        0.0414403565        2.1511484306
 C          3.9514150627        2.1309173102        1.7910265604
 H          4.3581699088        3.0893966912        2.1214042589
 H          2.9327541071        2.0481982364        2.1800958109
 C          3.8746661001        2.1343612097        0.2584850322
 H          4.8228547469        2.4651660390       -0.1648934024
 H          3.0914208284        2.8339972591       -0.0443915702
 H          7.6110980535       -0.2425479026        0.7523363302
 H          6.1698524300       -1.1193437389        1.2686585254
 H          6.1844202976        1.0396437511       -0.8856464350
 H          6.3564175282       -0.6961823511       -1.1991391933
 O          4.1050793769       -1.3890475061       -1.0078069227
 C          2.7809677803       -1.7901441240       -1.0878644107
 O          2.6279543794       -2.9637981280       -1.4806021923
 O          1.2108614562        1.3453740013       -0.1631190658
 C          0.3476163306       -1.3812014837       -0.8505099668
 C         -0.5240209887       -0.3642183169       -1.5439293604
 C         -0.2510807176       -0.0476737649       -2.8721690731
 C         -1.0198242739        0.8797768271       -3.5475856480
 C         -2.0888496176        1.4947127413       -2.9205170006
 C         -2.3751692439        1.1797950237       -1.5967764267
 C         -1.5933997547        0.2554581923       -0.9171121881
 H         -1.7937626014        0.0676983955        0.1233391017
 N         -3.4843072295        1.7490067432       -0.9691734108
 S         -3.8771436418        1.5855130258        0.6342439228
 O         -5.0950988588        2.3578624097        0.7662238648
 O         -2.8032927978        1.9589613755        1.5234696718
 C         -4.2509726660       -0.1469355043        0.8159715079
 C         -5.0125080965       -0.7732137569       -0.1504689693
 C         -5.3063392319       -2.1192989000       -0.0024727113
 C         -4.8390514952       -2.8128846874        1.1035604339
 C         -4.0816802841       -2.1683606870        2.0693530245
 C         -3.7860836429       -0.8220331947        1.9267133776
 H         -3.1944496623       -0.2809337006        2.6485977248
 H         -3.7189678736       -2.7082024890        2.9296360351
 H         -5.0650961536       -3.8617504980        1.2140996624
 H         -5.8959574280       -2.6243323584       -0.7505492920
 H         -5.3581959789       -0.2059147263       -0.9983693644
 H         -3.9462421857        2.5079125085       -1.4428249982
 H         -2.6917225533        2.2188552701       -3.4466044716
 H         -0.7879695722        1.1262263887       -4.5730007221
 H          0.5855461327       -0.5282225006       -3.3617228914
 H          0.4032314246       -2.2710727397       -1.4994945618
 C         -0.2282502762       -1.8485699534        0.4787421151
 C          0.6471999553       -2.4853726447        1.5152211077
 C          0.0517225259       -1.1340488838        1.7648006171
 H         -0.7448143475       -1.0468235018        2.4888369889
 H          0.6941105664       -0.2680657651        1.7273300533
 H          0.2592565128       -3.3292093562        2.0651992461
 H          1.7052260557       -2.5503535718        1.3064752052
 H         -1.2215872172       -2.2727164487        0.3635932876
