  62
        -98.93750008
 C          2.3057014123        1.3527321418       -0.0898807438
 C          3.2235908215        0.7782944529        0.8279565329
 C          4.0307197811       -0.3433458645        0.3338415438
 C          3.8775775522       -0.7606580763       -0.9353326285
 C          4.6442402756       -1.8597091911       -1.6219355061
 C          4.4247467142       -3.2834912645       -1.0747877890
 C          5.4545223988       -3.7235552935       -0.0267007395
 H          5.7120813717       -4.7692201513       -0.2067955469
 H          6.3688790131       -3.1464940077       -0.1697212306
 C          5.0075055280       -3.6196281588        1.4345646878
 H          4.3445653314       -4.4567925638        1.6647990208
 H          5.8950233298       -3.7201841972        2.0629650770
 C          4.2717539485       -2.3357562182        1.8192790608
 H          4.1922449958       -2.3017233615        2.9076195893
 H          3.2480256598       -2.3700032159        1.4374971716
 C          4.9317561053       -1.0385337102        1.3124202872
 H          5.8995633539       -1.2495302765        0.8603757454
 H          5.0813082555       -0.3474929616        2.1442059086
 H          4.4935007932       -3.9627698382       -1.9260876703
 H          3.4130340891       -3.3678678257       -0.6776867135
 H          4.3267129292       -1.8267496520       -2.6661886861
 H          5.7091455556       -1.6187224503       -1.5884118382
 O          2.9952501588       -0.1760086124       -1.7892603654
 C          2.1744245774        0.8687613588       -1.3912292770
 O          1.4070059609        1.2639364394       -2.2926920253
 O          3.3681018533        1.1942179797        2.0078793860
 C          1.4301186066        2.4829580741        0.4301805777
 C          0.0642927476        1.9226481975        0.7457693783
 C         -0.2772064271        1.5990009903        2.0545742141
 C         -1.4973859490        1.0132178101        2.3409632077
 C         -2.3964548052        0.7283140118        1.3285384282
 C         -2.0583179102        1.0354633343        0.0174449634
 C         -0.8451499304        1.6449541781       -0.2649724418
 H         -0.5819336077        1.8565297879       -1.2902639245
 N         -2.9544736606        0.7138579827       -1.0232825584
 S         -3.3595048669       -0.9149717360       -1.1542910319
 O         -2.3103956225       -1.7665986240       -0.6398557491
 O         -3.7293121138       -1.1118427738       -2.5391946183
 C         -4.8180819014       -1.0636164060       -0.1424972402
 C         -4.8486080795       -1.9755138770        0.8942431314
 C         -5.9969660233       -2.0760871908        1.6644982926
 C         -7.0882335980       -1.2677691073        1.3851962180
 C         -7.0422863969       -0.3585207586        0.3386557027
 C         -5.8980382886       -0.2537686891       -0.4358338866
 H         -5.8208212983        0.4363272186       -1.2592567551
 H         -7.8929013274        0.2682685381        0.1247488266
 H         -7.9798207276       -1.3470840672        1.9868968454
 H         -6.0341882367       -2.7826300886        2.4780582972
 H         -3.9727593740       -2.5773837651        1.0775622922
 H         -2.6389254861        1.0522179243       -1.9224400863
 H         -3.3439102875        0.2608867863        1.5420893216
 H         -1.7487988826        0.7695414667        3.3619302113
 H          0.4349850123        1.7905441516        2.8442782976
 H          1.8938403112        2.7911116036        1.3766070034
 C          1.3777300346        3.6823423427       -0.4928614795
 C          0.8936292915        4.9924168881        0.0503775563
 C          2.3430020791        4.8087065140       -0.2823784684
 H          2.7431442425        5.3113192459       -1.1501240062
 H          3.0468150650        4.7182046296        0.5320238276
 H          0.2953534179        5.6245901502       -0.5874973299
 H          0.6135714570        5.0260931854        1.0922943313
 H          1.1257809405        3.4352382049       -1.5158334179
