  62
        -98.94339970
 C         -0.7345762938       -1.8430974987        0.0940968832
 C         -1.4876365751       -1.1482131233        1.0665738979
 C         -2.7274887647       -0.4987935933        0.6063745194
 C         -3.0667415814       -0.5733622787       -0.6941284574
 C         -4.2648108983       -0.0279000149       -1.4426981178
 C         -5.1688948918        1.0269226019       -0.8106971308
 C         -4.5110068892        2.3902513643       -0.6031314693
 H         -5.2247806762        3.0372413230       -0.0876029384
 H         -4.3057744768        2.8323613021       -1.5815274929
 C         -3.1994658001        2.3790240375        0.1787369626
 H         -2.8604860857        3.4149332468        0.2757664466
 H         -2.4308001076        1.8564130104       -0.3967996203
 C         -3.2876444763        1.7827063619        1.5827706273
 H         -4.0934657563        2.2710085900        2.1345783862
 H         -2.3491286714        2.0107298003        2.0947125118
 C         -3.5006133690        0.2593561621        1.6478867395
 H         -4.5570914831        0.0065351447        1.5913349947
 H         -3.1311704401       -0.0918507242        2.6159679469
 H         -5.5842720314        0.6598367138        0.1232358134
 H         -6.0076512083        1.1681288511       -1.4979712663
 H         -3.8668725689        0.3627727731       -2.3851608410
 H         -4.8764781907       -0.8992400054       -1.7029959357
 O         -2.3156998105       -1.2713266285       -1.5955155934
 C         -1.1371841455       -1.9064456277       -1.2390862752
 O         -0.5596574584       -2.4829050146       -2.1805796822
 H          0.7040874044       -0.0444290812       -0.6417632422
 C          1.6430668348       -0.5673769748       -0.7176543174
 C          1.7499776924       -1.8585675095       -0.2242125443
 C          2.9631777951       -2.5220670518       -0.3763806053
 C          4.0246436911       -1.9039825806       -1.0135100726
 C          3.9115361061       -0.6134959256       -1.4997806759
 C          2.7035014266        0.0581299165       -1.3539680938
 N          2.5310275921        1.3584509903       -1.8441862543
 S          1.4270298999        2.4032768657       -1.1577599671
 O          0.0796537652        2.0165535471       -1.4946949099
 O          1.8440164630        3.7079111020       -1.6273111900
 C          1.7026049062        2.2793151339        0.5994961915
 C          2.9245405301        2.6913242115        1.0952766626
 C          3.1784876377        2.5541987630        2.4499037879
 C          2.2163122393        1.9997139924        3.2812683539
 C          0.9924788932        1.5975278707        2.7702748766
 C          0.7311295817        1.7428277500        1.4175137859
 H         -0.2102797930        1.4341071093        0.9910779923
 H          0.2424646553        1.1474456123        3.4016762413
 H          2.4193279167        1.8802613796        4.3338277850
 H          4.1268908402        2.8712821845        2.8526753886
 H          3.6467936305        3.1200426046        0.4198394057
 H          3.3644672233        1.8217867327       -2.1718456140
 H          4.7403894250       -0.1349556595       -1.9979124235
 H          4.9578097788       -2.4335443936       -1.1305167938
 H          3.0725497911       -3.5267836933       -0.0016421848
 C          0.5778945407       -2.4814998975        0.4991189597
 H          0.6909436710       -2.2596063155        1.5719745599
 C          0.5212081530       -3.9868299900        0.3204458995
 C          1.1947985252       -4.9004726830        1.2993949672
 C         -0.2994737872       -4.7969782048        1.2779040669
 H         -0.8739648588       -5.6256769825        0.8921764599
 H         -0.7872408909       -4.2649561416        2.0817304959
 H          1.7161186828       -4.4502331824        2.1307062956
 H          1.6488643600       -5.8070257177        0.9283905555
 H          0.5016595796       -4.2780683412       -0.7237345927
 O         -1.1417758062       -1.0710146057        2.2768779240
