  62
        -98.94417220
 C         -2.6198424526       -1.1074915713        0.2037322516
 C         -2.7386355220       -0.3121392010       -0.9618127440
 C         -3.5767071116        0.8890491408       -0.8322745089
 C         -4.1697925521        1.1567168929        0.3455216240
 C         -5.0015384786        2.3732615913        0.6302087891
 C         -4.1407583985        3.5167902268        1.1855752946
 C         -2.8785087128        3.7917557731        0.3680039587
 H         -2.3637349621        4.6333508073        0.8368599881
 H         -2.2123031764        2.9285287111        0.4396901489
 C         -3.1374776372        4.1085224269       -1.1116537808
 H         -4.1815002050        4.3906786046       -1.2517922812
 H         -2.5279274299        4.9683709291       -1.3970730865
 C         -2.7860479438        2.9726025185       -2.0743656858
 H         -2.8001767762        3.3731504039       -3.0913498133
 H         -1.7698293152        2.6226893882       -1.8747645669
 C         -3.7257965460        1.7604961820       -2.0475806068
 H         -4.7596384882        2.0930789642       -2.1595458981
 H         -3.4726145031        1.1261556640       -2.9019948502
 H         -3.8401918515        3.2611357117        2.2045592953
 H         -4.7518967191        4.4200248066        1.2289708945
 H         -5.4978507121        2.6895592330       -0.2850524699
 H         -5.7580112305        2.1073819418        1.3704306072
 O         -4.0334824346        0.3663100093        1.4420130181
 C         -3.2466058318       -0.7738200400        1.4030888607
 O         -3.1820722295       -1.3928299973        2.4858735355
 H         -0.3273605429       -0.3038200523        1.0601953587
 C          0.2502611303       -0.9119808982        0.3731376880
 C         -0.3441324275       -2.0284805139       -0.2022265201
 C          0.4159623452       -2.8093914036       -1.0630255297
 C          1.7251402712       -2.4644125159       -1.3518721799
 C          2.3042229079       -1.3403948421       -0.7931203082
 C          1.5581255307       -0.5589273590        0.0795879659
 N          2.1364365616        0.5919639096        0.6468745239
 S          3.5963240327        0.4093056992        1.4599857809
 O          3.7218081453       -0.9136793272        2.0271973085
 O          3.6509408727        1.5152000306        2.3912973501
 C          4.8265923706        0.6517060609        0.1964372239
 C          4.7911902000        1.8247738557       -0.5317613136
 C          5.7478690448        2.0317047575       -1.5126610901
 C          6.7198257272        1.0697138434       -1.7447440347
 C          6.7438137037       -0.1009359655       -1.0022562967
 C          5.7886316089       -0.3151816293       -0.0206447593
 H          5.7630810790       -1.2123290519        0.5769881479
 H          7.5001139335       -0.8474269560       -1.1842122529
 H          7.4629452661        1.2336421692       -2.5090765073
 H          5.7322417636        2.9406695304       -2.0922054472
 H          4.0216562853        2.5477562344       -0.3179913430
 H          1.4929000620        1.1306886212        1.2085067316
 H          3.3201223888       -1.0636436174       -1.0229627624
 H          2.3016149884       -3.0784926153       -2.0266540767
 H         -0.0180044125       -3.6883463213       -1.5104354663
 C         -1.7681792593       -2.3627215454        0.1741616352
 H         -1.7610737404       -2.7507283796        1.2041700588
 C         -2.4029969892       -3.3985855114       -0.7313541116
 C         -2.2453061929       -4.8598574801       -0.4403438713
 C         -3.5662450628       -4.1892524426       -0.2153612383
 H         -4.3806346679       -4.4092376923       -0.8891056757
 H         -3.8802828344       -4.0004437375        0.8013499493
 H         -2.1561167061       -5.5445875972       -1.2702464561
 H         -1.6658148969       -5.1382422016        0.4270921348
 H         -2.4340754558       -3.0801197555       -1.7668790319
 O         -2.1742269620       -0.5875323660       -2.0516188329
