  62
        -98.94375050
 C         -1.4759417359       -1.2613941309        0.7111639058
 C         -2.5294623867       -1.1777946930       -0.2311755271
 C         -3.4229048369       -0.0160312788       -0.0881552404
 C         -3.1519287004        0.9218089774        0.8371541507
 C         -3.9446975090        2.1800789057        1.0417604289
 C         -3.4215084954        3.3322967834        0.1721385153
 C         -3.2209546570        2.9604669940       -1.2966285043
 H         -2.8673381290        3.8546366733       -1.8146655229
 H         -2.4312564652        2.2094122350       -1.3740688624
 C         -4.4782382382        2.4250939115       -1.9944749653
 H         -4.5715812703        2.9060138269       -2.9704675090
 H         -5.3655820917        2.6885809115       -1.4177183961
 C         -4.4615269572        0.9153098837       -2.2381354325
 H         -5.2826063985        0.6703004001       -2.9172026012
 H         -3.5308083647        0.6337877224       -2.7371859602
 C         -4.6250076115        0.0394326566       -0.9898308233
 H         -5.5058139854        0.3615853855       -0.4300702473
 H         -4.7909240469       -0.9873114076       -1.3290183243
 H         -4.1259797590        4.1629902377        0.2431924720
 H         -2.4629973211        3.6677012015        0.5740022184
 H         -3.8685215185        2.4659800604        2.0921475693
 H         -4.9891818164        1.9834333215        0.8063261262
 O         -2.0872664296        0.8443459243        1.6755421228
 C         -1.2395621024       -0.2477439386        1.6457477302
 O         -0.3230957573       -0.2096848961        2.4900416007
 O         -2.7416678423       -2.0169230931       -1.1449946907
 C         -0.4832331556       -2.4148284931        0.7503087770
 C          0.6212738255       -2.1176904886       -0.2336510600
 C          0.4416887258       -2.2490044429       -1.6064791337
 C          1.4551199416       -1.9012421844       -2.4820273775
 C          2.6629935271       -1.4147171651       -2.0111597546
 C          2.8461196556       -1.2715454809       -0.6430075792
 C          1.8317218804       -1.6258104854        0.2351169637
 H          1.9705599340       -1.4907054733        1.2996541225
 N          4.0662972798       -0.7416950395       -0.1600715039
 S          4.2873562931        0.8941891544       -0.4514349060
 O          4.3134066594        1.1088042029       -1.8751493127
 O          5.4782124149        1.2658054505        0.2773120595
 C          2.8568860213        1.6792644448        0.2669201637
 C          2.9287521994        2.1408175696        1.5658192374
 C          1.7949421270        2.6806454832        2.1497123432
 C          0.6115238218        2.7391879164        1.4314168563
 C          0.5555379655        2.2681058659        0.1297271362
 C          1.6856453622        1.7285899256       -0.4615755636
 H          1.6750072330        1.3503701629       -1.4714442901
 H         -0.3695906488        2.3067366341       -0.4236262946
 H         -0.2768830636        3.1393110231        1.8941275064
 H          1.8312128567        3.0424383857        3.1646537822
 H          3.8692463448        2.0759486507        2.0896719560
 H          4.2002561455       -0.9094833206        0.8281549000
 H          3.4541610158       -1.1194200529       -2.6809095569
 H          1.3025715689       -2.0068094400       -3.5455994039
 H         -0.5080118037       -2.5977828872       -1.9814093431
 H         -0.0442984831       -2.3925500235        1.7568890939
 C         -1.1087289292       -3.7768041694        0.5363170823
 C         -0.3429551135       -4.9931717157        0.9589815898
 C         -1.5581444361       -4.5680624717        1.7260885971
 H         -2.4571914204       -5.1596767501        1.6406389736
 H         -1.4168291364       -4.1296514775        2.7035429021
 H         -0.4046113416       -5.8793409064        0.3463163338
 H          0.6235154062       -4.8422773971        1.4162927641
 H         -1.7125940877       -3.8470556546       -0.3575921987
