  62
        -98.93886851
 C         -0.9874615899       -1.6829493640       -0.0002903208
 C         -1.9234840026       -1.2625078273        0.9695784361
 C         -2.8528063823       -0.1885891052        0.5720372377
 C         -2.7346712182        0.3530400084       -0.6538994238
 C         -3.5736040426        1.4334882708       -1.2883725948
 C         -3.8956997900        2.6576459016       -0.4169683437
 C         -5.3666785280        2.7386005552       -0.0046480556
 H         -5.6105174808        3.7793165644        0.2205214358
 H         -5.9833121680        2.4367563721       -0.8537543441
 C         -5.7456354659        1.9024827072        1.2166244720
 H         -5.3252908263        2.3620753559        2.1140108823
 H         -6.8332554837        1.9359860224        1.3153087257
 C         -5.3029261804        0.4383566330        1.1728734916
 H         -5.4521032183        0.0226320723        0.1771587089
 H         -5.9473935579       -0.1244285681        1.8516802942
 C         -3.8500088407        0.2205980724        1.6219572868
 H         -3.4799298444        1.1156137536        2.1311504869
 H         -3.8133027940       -0.5819625593        2.3654842915
 H         -3.2569641750        2.6654718882        0.4651602878
 H         -3.6631575710        3.5526099980       -0.9967594841
 H         -3.0169949002        1.7432611372       -2.1747545905
 H         -4.5020358620        0.9825515459       -1.6471077334
 O         -1.7917140315       -0.0621656822       -1.5455711809
 C         -0.8939704380       -1.0728044108       -1.2511140763
 O         -0.0857961490       -1.3267946135       -2.1609991926
 H          0.8443725625       -0.6463122569        1.6433088166
 C          1.6451244041       -1.0748880792        1.0527754679
 C          1.3950876919       -2.2243707024        0.3118550229
 C          2.4310576684       -2.7662091923       -0.4357329111
 C          3.6758772629       -2.1587575090       -0.4527340282
 C          3.9165318466       -1.0085854579        0.2758173473
 C          2.8888998795       -0.4665284432        1.0374553532
 N          3.1181327700        0.7153188921        1.7779310426
 S          3.4547354800        2.0813556557        0.8661819118
 O          4.7614767514        1.9363670698        0.2779549928
 O          3.2797137249        3.1977686574        1.7677272553
 C          2.2079586592        2.1156081340       -0.4076225042
 C          2.4475903106        1.4774586844       -1.6077054718
 C          1.4555149016        1.4762307940       -2.5744384151
 C          0.2486972497        2.1097014118       -2.3253327449
 C          0.0194529805        2.7387698967       -1.1115843185
 C          1.0053234378        2.7378632362       -0.1387598875
 H          0.8695656690        3.2229080336        0.8151127385
 H         -0.9247325907        3.2227889832       -0.9188003461
 H         -0.5199484904        2.1017604026       -3.0817220967
 H          1.6193813267        0.9703489009       -3.5117431731
 H          3.4009230760        1.0010020114       -1.7674717722
 H          2.3644645807        0.9266604941        2.4175169328
 H          4.8735905891       -0.5127704914        0.2572359136
 H          4.4697132386       -2.5866265626       -1.0459466981
 H          2.2629213387       -3.6580217465       -1.0162493278
 C         -0.0040758820       -2.7866210837        0.3476823212
 H         -0.2338664406       -3.0695828473        1.3854462928
 C         -0.2050384574       -3.9923884293       -0.5440268444
 C          0.2043274541       -5.3534411993       -0.0684993905
 C         -1.2484309093       -5.0021344978       -0.1745821041
 H         -1.8333121149       -5.4515225841       -0.9629858148
 H         -1.8031382548       -4.8331981521        0.7369584500
 H          0.6161109331       -6.0484869062       -0.7844734105
 H          0.6366736794       -5.4291157673        0.9177713583
 H         -0.0864565945       -3.7587199587       -1.5957272133
 O         -1.9825818753       -1.7616939419        2.1276956770
