  62
        -98.93823750
 C          1.9060660320        0.8919549413       -0.3255629203
 C          3.0274412443        1.1227926517        0.5088699619
 C          4.3183886107        0.5954334284        0.0392958770
 C          4.3699656192       -0.0788744175       -1.1221925860
 C          5.5732132353       -0.6724618261       -1.8112172907
 C          6.5963104400       -1.4126868951       -0.9392244572
 C          6.0038149648       -2.1547661966        0.2677020024
 H          4.9160000302       -2.1939970742        0.1868384108
 H          6.3668544501       -3.1842728985        0.2644638874
 C          6.3936800445       -1.5236949646        1.6065355898
 H          6.2675353798       -2.2690077176        2.3955775650
 H          7.4529313390       -1.2593772965        1.5735699763
 C          5.5829692615       -0.2935368378        2.0124721996
 H          4.5633323364       -0.5916270046        2.2711061239
 H          6.0337662055        0.1225696991        2.9166313889
 C          5.4889802634        0.8170819080        0.9534957951
 H          5.2921406485        1.7591393828        1.4723887704
 H          6.4196952921        0.9140796858        0.4000323748
 H          7.1073719827       -2.1248519611       -1.5894228057
 H          7.3521726611       -0.7114618313       -0.5884008120
 H          5.1631254673       -1.3584970439       -2.5564082787
 H          6.0812549349        0.1281799891       -2.3567975203
 O          3.2625361166       -0.2926487562       -1.8867450766
 C          2.0107947466        0.1737548328       -1.5153650792
 O          1.1053113639       -0.1103332278       -2.3229445887
 O          2.9552938216        1.7549866823        1.5955923903
 C          0.5552144906        1.4159347861        0.1324437569
 C         -0.3093140706        0.2420455187        0.5171587786
 C         -0.1461162201       -0.3436298054        1.7694348904
 C         -0.9029714670       -1.4383072791        2.1440241032
 C         -1.8365195412       -1.9763063625        1.2747359647
 C         -1.9989566002       -1.4043676655        0.0207434629
 C         -1.2480611867       -0.2968617195       -0.3490967013
 H         -1.3773771549        0.1281576176       -1.3318765931
 N         -2.9591320689       -1.9438123506       -0.8650647070
 S         -4.5518906182       -1.7717823441       -0.3730469120
 O         -4.7876819526       -2.6303896865        0.7594756927
 O         -5.3583963417       -2.0221110334       -1.5457827710
 C         -4.6760168372       -0.0614061897        0.1165464978
 C         -4.3870668000        0.2904607018        1.4196886505
 C         -4.3935105837        1.6319415305        1.7666649488
 C         -4.6857149015        2.5923663726        0.8107695024
 C         -4.9776612243        2.2218900581       -0.4930336396
 C         -4.9660765800        0.8829173467       -0.8479309295
 H         -5.1895975999        0.5520521611       -1.8496662602
 H         -5.2094879252        2.9713484886       -1.2328076481
 H         -4.6862051519        3.6361712237        1.0826822560
 H         -4.1663108535        1.9223989355        2.7798165562
 H         -4.1689725359       -0.4856036934        2.1346292974
 H         -2.8570636683       -1.5944899583       -1.8078619607
 H         -2.4457726735       -2.8220791058        1.5500769948
 H         -0.7657539759       -1.8787374890        3.1200398884
 H          0.5900490227        0.0697404474        2.4447314280
 H          0.7652404913        1.9945662701        1.0419908834
 C         -0.0871512948        2.3289342547       -0.8909473671
 C         -1.2827980465        3.1404126621       -0.4926254207
 C          0.0347212825        3.8132791055       -0.7306444044
 H          0.1539323136        4.4175086616       -1.6174847327
 H          0.5845567162        4.1801639675        0.1234426076
 H         -2.0731051290        3.2830107292       -1.2133506922
 H         -1.6303300487        3.0437021764        0.5246508059
 H         -0.0523468471        1.9361405921       -1.8998272936
