  62
        -98.94255095
 C          1.2518483515        1.1519191540        0.2515389569
 C          2.0343494114        0.5253213525        1.2547099178
 C          2.7574316015       -0.6850333007        0.8495959560
 C          2.5959770589       -1.1709305463       -0.3939798671
 C          3.2669115973       -2.3922587814       -0.9618579193
 C          4.6863973735       -2.1371434743       -1.4882748732
 C          5.7534779477       -1.9153795678       -0.4157324019
 H          5.7120198062       -2.7268092910        0.3115154130
 H          6.7238540317       -1.9738379283       -0.9128081609
 C          5.6523487127       -0.5660610077        0.3092501532
 H          5.0257181331        0.1139982140       -0.2727182099
 H          6.6432613647       -0.1106545187        0.3725515266
 C          5.1009784599       -0.6522681889        1.7324961746
 H          5.0341635007        0.3611389962        2.1371667176
 H          5.7928325220       -1.2186363253        2.3599248846
 C          3.7116381816       -1.2957340647        1.8308425702
 H          3.7836566906       -2.3715721414        1.6735913586
 H          3.3197453806       -1.1131441384        2.8345396464
 H          4.6609634375       -1.2751724447       -2.1590353007
 H          4.9747863460       -3.0090342324       -2.0800447855
 H          2.6518532321       -2.7244665810       -1.8004224388
 H          3.2925698621       -3.1816795093       -0.2102339473
 O          1.7620786557       -0.5955960525       -1.2970393772
 C          1.0778360579        0.5804417911       -1.0107669063
 O          0.3675310599        0.9843876638       -1.9475605683
 O          2.1221980288        0.9569837475        2.4356845184
 C          0.5320033427        2.4359531890        0.6250067584
 C         -0.9223939607        2.3341569444        0.2465449309
 C         -1.5063283719        3.0772520085       -0.7700233772
 C         -2.8402677502        2.8960454880       -1.0927534325
 C         -3.6204701283        1.9840146559       -0.4055811512
 C         -3.0458484429        1.2387562863        0.6159093200
 C         -1.7083137893        1.4156941082        0.9327751750
 H         -1.2587470896        0.8253454975        1.7222881102
 N         -3.8377936016        0.3070897697        1.3252310536
 S         -4.3799325310       -1.0237323436        0.4664657216
 O         -5.2060321219       -0.5718695832       -0.6225162669
 O         -5.0144951895       -1.8802072724        1.4424504873
 C         -2.9051373679       -1.8082941738       -0.1571035873
 C         -2.3263328354       -1.3313653487       -1.3158291420
 C         -1.1563401016       -1.9191517015       -1.7693723738
 C         -0.5864046702       -2.9610251721       -1.0547458796
 C         -1.1740724028       -3.4221585573        0.1132785050
 C         -2.3442630428       -2.8392594366        0.5705651703
 H         -2.8407912903       -3.1718437691        1.4681628766
 H         -0.7232554060       -4.2305753216        0.6663525845
 H          0.3245884136       -3.4154414961       -1.4107657250
 H         -0.6852866528       -1.5432777213       -2.6634345876
 H         -2.7904846080       -0.5157827144       -1.8461978099
 H         -3.3990635056       -0.0142340204        2.1773984700
 H         -4.6560208336        1.8208813111       -0.6561467196
 H         -3.2788502814        3.4726675593       -1.8930773440
 H         -0.9083358910        3.7782991238       -1.3285952589
 H          0.5932800965        2.4698507988        1.7256472943
 C          1.2016891166        3.7047436420        0.1197738156
 C          2.6942255206        3.7851091119        0.0072698786
 C          1.8474721407        3.8064666847       -1.2280788602
 H          1.7556318178        4.7380057485       -1.7675129719
 H          1.8332155333        2.9341453506       -1.8617837652
 H          3.1868383638        4.6958388946        0.3130992312
 H          3.2583667822        2.8895625877        0.2248518124
 H          0.6986968740        4.5953801173        0.4844388817
