  62
        -98.94413225
 C         -2.2286748156       -0.8346771400        0.4462549373
 C         -2.4760796349       -0.0679720236       -0.7184459632
 C         -3.3491776078        1.0989697083       -0.5361268573
 C         -3.8166122238        1.4018675117        0.6885820542
 C         -4.6914237518        2.5753042606        1.0383471770
 C         -6.1878568249        2.3353142136        0.7955461548
 C         -6.6128783064        2.3117353090       -0.6731629974
 H         -7.7035930811        2.3561350222       -0.6913653443
 H         -6.2425397007        3.2080598017       -1.1716150293
 C         -6.1563729838        1.0650363604       -1.4437414468
 H         -6.9908543041        0.6735437472       -2.0297553282
 H         -5.8689261991        0.2843643780       -0.7356545503
 C         -4.9973340109        1.3065385174       -2.4108450002
 H         -4.7312529801        0.3521273687       -2.8719630739
 H         -5.3171476538        1.9862258834       -3.2036711732
 C         -3.7361442357        1.8826313676       -1.7538219800
 H         -2.9125965873        1.8106212895       -2.4684559608
 H         -3.8894442819        2.9313457411       -1.4999674795
 H         -6.7311456863        3.1399282666        1.2964378588
 H         -6.4728435717        1.3949611009        1.2730927723
 H         -4.5421528035        2.7670593518        2.1032712764
 H         -4.3672012550        3.4533306721        0.4788036193
 O         -3.5147806873        0.6644501433        1.7919032645
 C         -2.7318795281       -0.4753950918        1.6954598350
 O         -2.5470087928       -1.0653957639        2.7808469437
 H          0.1131703528        0.0123773831        1.1071429791
 C          0.6437976402       -0.5968451605        0.3841273412
 C          0.0217552192       -1.7273493319       -0.1316095652
 C          0.7231811968       -2.5081761022       -1.0409575335
 C          2.0018809036       -2.1510588319       -1.4331651203
 C          2.6086632475       -1.0154238511       -0.9299236539
 C          1.9213378729       -0.2333173176       -0.0108647172
 N          2.5334633175        0.9265418286        0.5059295266
 S          3.9866257563        0.7088633446        1.3260149044
 O          4.0470920312       -0.5917970261        1.9533528588
 O          4.1022974289        1.8518338722        2.2055325316
 C          5.2216841562        0.8284769946        0.0497876891
 C          6.1019139638       -0.2157805983       -0.1557337472
 C          7.0604360797       -0.0972207028       -1.1502212914
 C          7.1211961598        1.0568664601       -1.9162416317
 C          6.2307696688        2.0973355559       -1.6954415342
 C          5.2710198422        1.9860622345       -0.7021236318
 H          4.5625272257        2.7708580525       -0.4955415752
 H          6.2809463359        2.9928761176       -2.2936114719
 H          7.8669404235        1.1463284607       -2.6902767025
 H          7.7535148721       -0.9046365833       -1.3235975257
 H          6.0115673957       -1.0957705768        0.4606777654
 H          1.9087462766        1.4881832090        1.0671075221
 H          3.6000660572       -0.7288105591       -1.2404573205
 H          2.5318506227       -2.7650099181       -2.1451168886
 H          0.2674381791       -3.3971760994       -1.4448844104
 C         -1.3624335848       -2.0771748993        0.3613423398
 H         -1.2650435558       -2.4514152175        1.3919203469
 C         -2.0512326638       -3.1342097746       -0.4777730025
 C         -1.8467136567       -4.5888658480       -0.1828705143
 C         -3.1563675863       -3.9359162452        0.1391287978
 H         -4.0183317452       -4.1776707261       -0.4643988734
 H         -3.3909591789       -3.7394021204        1.1756925546
 H         -1.8127467659       -5.2833212015       -1.0087492021
 H         -1.1952995715       -4.8463743333        0.6387768118
 H         -2.1701335961       -2.8301015405       -1.5112756439
 O         -1.9918183900       -0.3376432131       -1.8471975187
