  62
        -98.94439460
 C         -1.8406492528       -0.0135576229       -0.3952168607
 C         -2.9672618665        0.4238069948       -1.1320031250
 C         -4.2690045678       -0.0805652537       -0.6761098976
 C         -4.3165433705       -0.9218157730        0.3731543148
 C         -5.5780411317       -1.4707810655        0.9730737347
 C         -6.0956802557       -0.5679001773        2.1015141258
 C         -6.1718588560        0.9113819939        1.7234999721
 H         -6.5778917850        1.4461840691        2.5848796382
 H         -5.1601819224        1.2891968567        1.5587238262
 C         -7.0310901129        1.2072182586        0.4862805716
 H         -7.6672383862        2.0686914611        0.7001375105
 H         -7.6890046972        0.3618600850        0.2816251896
 C         -6.2329526989        1.5450852617       -0.7742885061
 H         -5.5063162029        2.3293926333       -0.5480319693
 H         -6.9263736282        1.9460115420       -1.5183012984
 C         -5.4892417971        0.3731680469       -1.4271962301
 H         -6.1784231416       -0.4592392910       -1.5829535796
 H         -5.1306333031        0.7104878437       -2.4040973533
 H         -7.0846247945       -0.9208545485        2.3996586715
 H         -5.4262398356       -0.6681815671        2.9591005751
 H         -6.3328612667       -1.5660924838        0.1949116524
 H         -5.3623968166       -2.4597549950        1.3810389745
 O         -3.2107050882       -1.3364207377        1.0435159129
 C         -1.9464765730       -0.8887929883        0.6854733235
 O         -1.0236108168       -1.3392462840        1.3906974466
 O         -2.8861325159        1.1934321420       -2.1268906752
 C         -0.4652855526        0.4850418855       -0.7986357680
 C          0.4557432409       -0.6731976220       -1.0883606436
 C          0.0048742584       -1.7037974708       -1.9095987499
 C          0.8136986510       -2.7865184641       -2.1921988570
 C          2.0917775815       -2.8630926286       -1.6673759085
 C          2.5596720939       -1.8316075506       -0.8622987820
 C          1.7465283610       -0.7398718656       -0.5870056619
 H          2.1228031955        0.0412186993        0.0515431835
 N          3.8696747844       -1.8623217078       -0.3722475054
 S          4.3664944379       -1.0244393946        0.9798382501
 O          5.6677359516       -1.5867683857        1.2777846787
 O          3.4031120244       -1.0693911544        2.0541877732
 C          4.5840129914        0.6503419382        0.4129114125
 C          5.0274902475        0.8805576381       -0.8743372711
 C          5.2339798791        2.1872003181       -1.2871735264
 C          5.0052399627        3.2361547417       -0.4099709884
 C          4.5664806461        2.9885099188        0.8814051397
 C          4.3522953248        1.6839129704        1.2986882457
 H          3.9983053514        1.4467090961        2.2897842855
 H          4.3892066929        3.8047508807        1.5638148378
 H          5.1675704276        4.2521360528       -0.7333702263
 H          5.5736252723        2.3832036995       -2.2914032233
 H          5.1956343836        0.0441397347       -1.5316647403
 H          4.3698445343       -2.7282077810       -0.5030872040
 H          2.7214871230       -3.7138433886       -1.8780870934
 H          0.4457741182       -3.5825578323       -2.8220704299
 H         -0.9968555013       -1.6489268280       -2.3137786922
 H         -0.6224106631        1.0411782222       -1.7353875306
 C          0.0743651475        1.4400940686        0.2454939800
 C          0.9914187678        2.5555446176       -0.1560716446
 C         -0.4186025312        2.8550914592        0.2528898054
 H         -0.5914779209        3.3356285193        1.2041980219
 H         -1.1271741234        3.1345658623       -0.5131117629
 H          1.7914643420        2.8309584241        0.5141400279
 H          1.2450473453        2.6402692493       -1.2017421708
 H          0.2375980308        0.9596578378        1.2049088012
