  62
        -98.93123919
 C          2.3031154162       -0.7511132565        0.5101360175
 C          3.5427391538       -1.0622026437       -0.0965053520
 C          4.5727712428       -0.0074332353       -0.0878687861
 C          4.2902246768        1.1730743308        0.4919189680
 C          5.1629441157        2.3959570901        0.6207725110
 C          6.6269986384        2.1593501190        1.0224661445
 C          7.6192533881        2.4255990549       -0.1108474843
 H          7.2881893261        3.3078545595       -0.6626541139
 H          8.5928575533        2.6605308169        0.3250149599
 C          7.8179440730        1.2659409023       -1.0852896059
 H          8.4300980033        1.6312209939       -1.9132379389
 H          8.3812471811        0.4711965747       -0.5913613527
 C          6.5326100235        0.6627575438       -1.6554973953
 H          6.7858263318        0.1634154902       -2.5932222549
 H          5.8162183805        1.4470605208       -1.8974760663
 C          5.8798965815       -0.3785167447       -0.7338934461
 H          5.6570409081       -1.2851785073       -1.3049537514
 H          6.5852729692       -0.6814505744        0.0453337094
 H          6.7482032922        1.1461197755        1.4022416833
 H          6.8614136246        2.8412015617        1.8414898545
 H          4.6682629032        3.0180086832        1.3701233952
 H          5.1213713982        2.9509745240       -0.3197631940
 O          3.0762847292        1.4326489533        1.0556852130
 C          2.0545730106        0.4987835159        1.0749094663
 O          1.0097837927        0.9000444512        1.6213075076
 O          3.7821774793       -2.1796500602       -0.6292216422
 C          1.2084192445       -1.8049439079        0.4956223288
 C          0.1173621944       -1.3411372530       -0.4378049140
 C          0.3105909379       -1.4632983322       -1.8112048278
 C         -0.6459073919       -1.0135794291       -2.7013052915
 C         -1.8110512921       -0.4224951895       -2.2436575545
 C         -2.0117119884       -0.2923695953       -0.8762773260
 C         -1.0559018341       -0.7609840430        0.0172163681
 H         -1.2180051319       -0.6428484094        1.0772460929
 N         -3.1780631888        0.3408959203       -0.3944511563
 S         -4.6664703114       -0.2916362822       -0.8793321519
 O         -4.8027894567       -1.6616146162       -0.4308924227
 O         -4.8215795809       -0.0760860246       -2.2953095807
 C         -5.7811957066        0.7674624261        0.0197298383
 C         -6.4346153680        0.2867830470        1.1377207807
 C         -7.2821453325        1.1341928829        1.8343695918
 C         -7.4572834030        2.4407820926        1.4048975050
 C         -6.7932225476        2.9088845382        0.2804807007
 C         -5.9460200314        2.0665999640       -0.4212242477
 H         -5.4154216460        2.3845897050       -1.3033163369
 H         -6.9329235258        3.9254709441       -0.0502517088
 H         -8.1166819241        3.0983476246        1.9491448634
 H         -7.8012734543        0.7728670528        2.7075289962
 H         -6.2727462990       -0.7380389513        1.4313040221
 H         -3.1621250427        0.4058575600        0.6155117075
 H         -2.5665094881       -0.0721447736       -2.9275011176
 H         -0.4836878003       -1.1190620714       -3.7636651713
 H          1.2270809742       -1.9110371818       -2.1703849440
 H          1.6718176966       -2.6987356249        0.0561050501
 C          0.7241404935       -2.1430639178        1.8895225596
 C         -0.1013972699       -3.3762995142        2.0992137567
 C          1.3090722374       -3.3236911261        2.6023757263
 H          1.4746766335       -3.2516462730        3.6668430575
 H          2.0596563356       -3.9002221415        2.0819883050
 H         -0.9063830334       -3.3442690768        2.8175944140
 H         -0.3112674990       -3.9869284249        1.2338505710
 H          0.4942645715       -1.2695796126        2.4876225609
