  62
        -98.93643145
 C         -0.3983071183       -2.2294276026        0.5981125943
 C          0.5099101493       -1.3221961317        1.1980651400
 C          1.9262435767       -1.5038817574        0.8386218097
 C          2.2760621131       -2.4230519309       -0.0762815633
 C          3.6667105276       -2.7091386821       -0.5760071190
 C          4.3303889825       -1.5566367024       -1.3548968902
 C          5.2500401544       -0.6719051423       -0.5041672148
 H          5.5823219060       -1.2420892597        0.3642902197
 H          6.1439287538       -0.4341973826       -1.0846242326
 C          4.6512586394        0.6596481061       -0.0415483204
 H          5.3028851332        1.0623485035        0.7373085444
 H          4.6622437286        1.3631948131       -0.8775764916
 C          3.2171902836        0.6105030991        0.4904760970
 H          2.5110534580        0.5584651089       -0.3431703625
 H          3.0148295119        1.5534322876        1.0020533682
 C          2.9165365287       -0.5561025995        1.4506899448
 H          2.4542285849       -0.1683907729        2.3608687123
 H          3.8317806622       -1.0807215605        1.7211171011
 H          3.5566938828       -0.9535255761       -1.8319664272
 H          4.9260090072       -2.0073650190       -2.1505735691
 H          4.2985784100       -2.9933182950        0.2683766814
 H          3.5712774513       -3.5780485304       -1.2302429391
 O          1.3664979872       -3.2462998649       -0.6665112468
 C          0.0230474953       -3.1659530360       -0.3483624099
 O         -0.6963828687       -3.9829484031       -0.9611182601
 O          0.1842096485       -0.4076058792        1.9968586594
 C         -1.9006101066       -2.1956316220        0.8340212750
 C         -2.5487374583       -1.3203698398       -0.2082008549
 C         -3.6785218456       -1.7295773737       -0.9052098476
 C         -4.2278751053       -0.9199624932       -1.8845783251
 C         -3.6540870476        0.2994745596       -2.1954279823
 C         -2.5238724388        0.7181777156       -1.5006449573
 C         -1.9929652203       -0.0829872100       -0.5021263667
 H         -1.1139557717        0.2418705768        0.0300697154
 N         -1.9261476291        1.9559679198       -1.7740091346
 S         -0.2804584408        2.2017785413       -1.5991629791
 O          0.0336282308        3.2471364021       -2.5528819885
 O          0.4687798634        0.9756134208       -1.7581314707
 C         -0.0700072283        2.8737549064        0.0379883150
 C         -1.0889104899        2.8594260024        0.9668699258
 C         -0.8586426573        3.4049556673        2.2204021226
 C          0.3741639532        3.9600196316        2.5212699997
 C          1.3838709622        3.9812832759        1.5717916967
 C          1.1610579393        3.4336340214        0.3191689025
 H          1.9165640923        3.4323327901       -0.4506272516
 H          2.3425336750        4.4180964263        1.8029520305
 H          0.5490758110        4.3796065437        3.4994336890
 H         -1.6451897959        3.3899983799        2.9576206857
 H         -2.0428770749        2.4276552067        0.7143863284
 H         -2.2959605445        2.4527670783       -2.5702794549
 H         -4.0703011851        0.9218689348       -2.9727777391
 H         -5.1033590852       -1.2486688158       -2.4236913269
 H         -4.1110356145       -2.6963132801       -0.6933812789
 H         -2.2488288951       -3.2268771482        0.6609815874
 C         -2.2857592958       -1.8157839573        2.2563424394
 C         -2.9015981612       -0.5011271807        2.6179020041
 C         -3.7329335801       -1.7460826271        2.6462561731
 H         -4.0300772877       -2.1519790971        3.6012693338
 H         -4.4650920132       -1.8747431886        1.8633696212
 H         -2.6004612195       -0.0496833143        3.5502078167
 H         -3.0780629003        0.2096589778        1.8263873946
 H         -1.6055483339       -2.2436718384        2.9848844210
