  62
        -98.93135864
 C         -2.2520872324       -0.9666649798       -0.3396731405
 C         -3.6309100178       -1.2149048056       -0.1189323533
 C         -4.5543846900       -0.1460889528       -0.5101869081
 C         -4.0695379016        0.9817711087       -1.0600442999
 C         -4.8834983845        2.1537804154       -1.5381954852
 C         -5.2590102234        3.1478696622       -0.4306585659
 C         -6.3274749869        2.6589984329        0.5481186865
 H         -6.6473511551        3.5250022139        1.1309221461
 H         -7.1941895733        2.3037986965       -0.0100721217
 C         -5.8495846460        1.5645512576        1.5126148966
 H         -4.7572378200        1.5423439970        1.5257360515
 H         -6.1766166612        1.8047512467        2.5267673901
 C         -6.3690399886        0.1637356003        1.1888522136
 H         -5.9398847983       -0.5359560786        1.9104064118
 H         -7.4551273398        0.1403965823        1.3015264177
 C         -6.0132939608       -0.3313330260       -0.2191227943
 H         -6.6179261499        0.1853785220       -0.9639870829
 H         -6.2291213880       -1.4011362643       -0.2717229849
 H         -4.3535722522        3.4143430074        0.1197454893
 H         -5.6297305505        4.0526388107       -0.9179917574
 H         -5.7886409288        1.7945547036       -2.0287811639
 H         -4.2707282844        2.6758572120       -2.2762524504
 O         -2.7413750918        1.1795546188       -1.2683870400
 C         -1.7957067369        0.2250921621       -0.9041624603
 O         -0.6237556028        0.5702154840       -1.1395093255
 O         -4.0686136837       -2.2855947968        0.3818607916
 C         -1.2760431696       -2.0640600319        0.0676637755
 C         -0.2204787079       -1.4978015209        0.9824766506
 C         -0.5790865819       -1.3459975773        2.3227559202
 C          0.2906996992       -0.7906978831        3.2396678114
 C          1.5489709564       -0.3746778293        2.8434469960
 C          1.9239120029       -0.5228184145        1.5140266499
 C          1.0430648860       -1.0783495979        0.5942001144
 H          1.3602643303       -1.1287054663       -0.4295546911
 N          3.2241373245       -0.1600757466        1.1105866107
 S          3.5188456987        0.6459290467       -0.3434935779
 O          2.9338028395        1.9689760697       -0.3136463017
 O          3.1721583518       -0.2052700089       -1.4504719911
 C          5.2958279441        0.7722019980       -0.2301306035
 C          6.0506312663       -0.3528509077       -0.5026369980
 C          7.4297599817       -0.2788077651       -0.3908952621
 C          8.0289965855        0.9129657663       -0.0105009847
 C          7.2592319126        2.0346400036        0.2572790447
 C          5.8788545234        1.9660354329        0.1487683778
 H          5.2406400088        2.8139510997        0.3395663184
 H          7.7276332491        2.9607096695        0.5494931518
 H          9.1027269470        0.9684077326        0.0751416053
 H          8.0314641900       -1.1483120159       -0.6010065990
 H          5.5413596693       -1.2535838007       -0.8029837249
 H          3.7177804874        0.3273157819        1.8479545819
 H          2.2336956484        0.0612752868        3.5555406533
 H         -0.0124396122       -0.6777882776        4.2697082674
 H         -1.5654071434       -1.6608551737        2.6359145995
 H         -1.8896966487       -2.7387074614        0.6872824995
 C         -0.8850025182       -2.9018310130       -1.1425458067
 C          0.0341980677       -2.4869692437       -2.2501841892
 C          0.4331206946       -3.5922074414       -1.3173894484
 H          0.4305140902       -4.6033116770       -1.6969626719
 H          1.2108081760       -3.3944597278       -0.5969792558
 H         -0.2545010664       -2.7506734811       -3.2585475663
 H          0.5293653380       -1.5304878676       -2.1937228760
 H         -1.7552343952       -3.4664406993       -1.4714946171
