  62
        -98.94304812
 C          2.6788998697        1.1903143731        0.1253342875
 C          2.7250198348        0.1817909934       -0.8670158825
 C          3.9451182984       -0.6348985663       -0.8834284118
 C          4.9380662542       -0.3740038325       -0.0137037164
 C          6.2522246700       -1.1017041496        0.0740173279
 C          6.1979078991       -2.3897285761        0.9070092246
 C          5.4625193815       -3.5586711543        0.2502722937
 H          5.8632763223       -3.7220730348       -0.7505829752
 H          5.6866248175       -4.4495662397        0.8403342700
 C          3.9388197002       -3.3868101588        0.1754727884
 H          3.4518391212       -4.3100145526        0.4973697204
 H          3.6256683890       -2.6026701052        0.8687105437
 C          3.4048765053       -3.0556600170       -1.2182261615
 H          3.5928296411       -3.8949990008       -1.8914317370
 H          2.3232030779       -2.9156810497       -1.1459359421
 C          4.0050343858       -1.7875652006       -1.8394697147
 H          5.0323134997       -1.9711246371       -2.1534774189
 H          3.4111779801       -1.5216213280       -2.7172951607
 H          5.7354469937       -2.1631680162        1.8705372467
 H          7.2285579901       -2.6976312997        1.0978353687
 H          6.6122610918       -1.3305109919       -0.9293669324
 H          6.9565484123       -0.4147811811        0.5482519248
 O          4.8656841630        0.6273095814        0.9042569091
 C          3.7306362575        1.4143616165        1.0127898850
 O          3.7794808590        2.2670383498        1.9231807263
 H         -1.0044191131        2.2305389201       -1.0029994683
 C         -0.9567766484        1.4454155516       -0.2643877916
 C          0.2155363361        1.2306229604        0.4422505665
 C          0.2359256445        0.2187582270        1.3987622023
 C         -0.8769960326       -0.5684998446        1.6200738503
 C         -2.0398227398       -0.3626671133        0.8977530170
 C         -2.0787836709        0.6546064227       -0.0444276418
 N         -3.2525053047        0.8701133037       -0.7833478019
 S         -4.7262722727        0.9103803784        0.0141600449
 O         -5.5940800111        1.6893291027       -0.8419858459
 O         -4.5804304438        1.3763380923        1.3736374920
 C         -5.2713723410       -0.7845550865        0.0026281809
 C         -5.6409415683       -1.3959731553        1.1845435426
 C         -6.0755338962       -2.7119167799        1.1513293786
 C         -6.1335359741       -3.3889903471       -0.0570973695
 C         -5.7613335822       -2.7596804300       -1.2357745276
 C         -5.3269555850       -1.4441485349       -1.2094851553
 H         -5.0315834584       -0.9203452987       -2.1032381972
 H         -5.8073860868       -3.2897022771       -2.1735267020
 H         -6.4711568309       -4.4131195468       -0.0806047248
 H         -6.3656891292       -3.2027709866        2.0664502787
 H         -5.5742830269       -0.8322181494        2.1015499139
 H         -3.1821870946        1.6134995998       -1.4627062961
 H         -2.9101365459       -0.9762864049        1.0631929542
 H         -0.8401134538       -1.3535392141        2.3603380088
 H          1.1433327990        0.0562073620        1.9652212668
 C          1.4514867243        2.0744906598        0.2431191287
 H          1.5968699358        2.6806715663        1.1497164802
 C          1.3709172882        3.0016609144       -0.9523821708
 C          0.7273801162        4.3491190941       -0.8252533964
 C          2.2155295615        4.2387493799       -0.9634221335
 H          2.6724703800        4.5436885264       -1.8928742760
 H          2.8280698062        4.4268609714       -0.0935299761
 H          0.1646539515        4.7353961389       -1.6622261758
 H          0.3269041589        4.6241559490        0.1391097673
 H          1.2594517619        2.4645513275       -1.8876307384
 O          1.8011314520       -0.0247496869       -1.6956615980
