  62
        -98.94738680
 C         -2.5648090378       -0.1358762740       -0.3983777986
 C         -2.1678223104       -0.7047319411        0.8360234740
 C         -1.7245145601       -2.1050341196        0.7829087845
 C         -1.7035529163       -2.7452364705       -0.4000460892
 C         -1.2498222494       -4.1616415296       -0.6050769222
 C          0.2432760424       -4.2337689529       -0.9497615996
 C          1.1415287930       -3.4494311223        0.0071046449
 H          2.1751092059       -3.6277099883       -0.3002900124
 H          0.9590024654       -2.3788034358       -0.1178457048
 C          0.9758265318       -3.8214725830        1.4871622904
 H          0.4957154044       -4.7975636569        1.5740711781
 H          1.9674533514       -3.9040693445        1.9367356354
 C          0.1995500554       -2.7920554195        2.3112093761
 H          0.6021105755       -1.7955646104        2.1142589743
 H          0.3585539162       -3.0121348795        3.3706826188
 C         -1.3158610034       -2.7530890998        2.0755465402
 H         -1.7281458017       -3.7625695106        2.1475052679
 H         -1.7590912723       -2.1418376543        2.8673465549
 H          0.5436820258       -5.2836808390       -0.9543825824
 H          0.3876540596       -3.8318985869       -1.9555479476
 H         -1.4525812274       -4.7340856465        0.2981842878
 H         -1.8235955165       -4.5864729864       -1.4309802492
 O         -2.0809045708       -2.1613222052       -1.5675821309
 C         -2.5016494006       -0.8425335766       -1.5975574523
 O         -2.8010173668       -0.4226530815       -2.7359250713
 H         -0.4141814251        1.0522446570       -0.9841238129
 C         -0.5953135655        1.9039964142       -0.3438312100
 C         -1.8947293776        2.2075907958        0.0397897809
 C         -2.1041032245        3.3184686029        0.8470943582
 C         -1.0318927565        4.0806800421        1.2785088511
 C          0.2640749982        3.7457628386        0.9316132131
 C          0.4820534535        2.6452693516        0.1105669466
 N          1.7815075129        2.2677997619       -0.2810178673
 S          2.0896615937        0.6027116887       -0.3030454492
 O          1.6428091747        0.0605711711       -1.5628408118
 O          1.5603622912       -0.0088807646        0.8925628624
 C          3.8722433819        0.5990442576       -0.2593361657
 C          4.5585953123        0.9687341635       -1.4008285398
 C          5.9436179537        0.9969340358       -1.3695126772
 C          6.6153962231        0.6560303990       -0.2045190153
 C          5.9129964366        0.2836158554        0.9314987160
 C          4.5270783059        0.2553052878        0.9076421487
 H          3.9372071607       -0.0321827495        1.7632172317
 H          6.4374369376        0.0152230406        1.8343215832
 H          7.6934525474        0.6783059140       -0.1831431368
 H          6.4930095911        1.2831777248       -2.2517548316
 H          3.9930295462        1.2154442800       -2.2842872062
 H          2.4964620485        2.7570774391        0.2418254882
 H          1.0997467734        4.3269873212        1.2910540593
 H         -1.2076378779        4.9383079438        1.9101429087
 H         -3.1054583741        3.5807100481        1.1473899422
 C         -3.0073514214        1.3152335015       -0.4567588687
 H         -3.1733337613        1.5387685352       -1.5217821110
 C         -4.3110162373        1.5043774343        0.2912662222
 C         -5.2946015884        2.5446491886       -0.1513816923
 C         -5.5890247150        1.0924366791       -0.3734266699
 H         -6.3530348066        0.6203650063        0.2256167546
 H         -5.5179924255        0.7010088980       -1.3781637237
 H         -5.0356546879        3.1440803172       -1.0111083369
 H         -5.8625864360        3.0704283480        0.6012403966
 H         -4.2115330544        1.3068029247        1.3523594240
 O         -2.2003393202       -0.0804989710        1.9292951609
