  62
        -98.94131344
 C          1.7875281787        0.6591618078       -0.1055785190
 C          2.9548162712        1.1359604109        0.5482211501
 C          4.2383500459        0.6914857872       -0.0041258804
 C          4.2558348547       -0.1361076121       -1.0640935727
 C          5.4828290056       -0.6636545239       -1.7567546401
 C          6.0919575014       -1.9037026368       -1.0882794294
 C          6.8133650490       -1.6420421036        0.2345239984
 H          7.3747729041       -2.5465096819        0.4772662438
 H          7.5365582685       -0.8370585015        0.0996241184
 C          5.8821977358       -1.3095605644        1.4088588980
 H          4.8619648689       -1.6125691153        1.1616524956
 H          6.1826132960       -1.8868272170        2.2862324805
 C          5.8769151593        0.1638841542        1.8163108728
 H          6.8633019063        0.4433887712        2.1930667533
 H          5.1574151568        0.2919931370        2.6289154637
 C          5.4934635754        1.1301375000        0.6879926288
 H          5.3061512210        2.1128496817        1.1277413841
 H          6.3113876156        1.2168864796       -0.0270254617
 H          5.3008136027       -2.6410434458       -0.9327176241
 H          6.8109170267       -2.3317598098       -1.7907166841
 H          5.1760560000       -0.9346078167       -2.7694145144
 H          6.2349209258        0.1234071968       -1.8203638995
 O          3.1186813144       -0.5854006551       -1.6541354939
 C          1.8592330622       -0.2209708806       -1.1871147328
 O          0.9264547804       -0.7415589236       -1.8260029517
 O          2.9235545097        1.9009464266        1.5477823242
 C          0.4507213601        1.0959825592        0.4688719111
 C         -0.4390584833       -0.0960179905        0.7019670541
 C         -0.2630868736       -0.8800205066        1.8377570289
 C         -1.0702029513       -1.9779416118        2.0753823894
 C         -2.0686357490       -2.3207452771        1.1798194266
 C         -2.2390029064       -1.5538544628        0.0369215596
 C         -1.4390293505       -0.4439803297       -0.1925765546
 H         -1.5779102758        0.1380034245       -1.0904747246
 N         -3.2799222138       -1.8866003165       -0.8663474093
 S         -4.7925817444       -1.4058987935       -0.3292929147
 O         -5.1280323672       -2.1694230083        0.8450614551
 O         -5.6853383812       -1.5354089892       -1.4584784277
 C         -4.5754131343        0.3126454692        0.0984176491
 C         -4.7502827531        1.2702839275       -0.8805133732
 C         -4.4763757272        2.5946944297       -0.5793534514
 C         -4.0203327240        2.9341239591        0.6854494509
 C         -3.8476338411        1.9600632379        1.6570868326
 C         -4.1250835952        0.6347555202        1.3631597389
 H         -4.0031266019       -0.1512973156        2.0903630859
 H         -3.4891278157        2.2264628885        2.6384330773
 H         -3.7966207748        3.9642159036        0.9155111551
 H         -4.6106988192        3.3555182973       -1.3315952370
 H         -5.1056602230        0.9633294558       -1.8513381547
 H         -3.1210483789       -1.5110852512       -1.7914431862
 H         -2.7211532456       -3.1613441520        1.3518589720
 H         -0.9224107681       -2.5717379445        2.9647199310
 H          0.5187422738       -0.6178573056        2.5372773669
 H          0.7094615704        1.5250036293        1.4502145972
 C         -0.2550339650        2.1968450741       -0.3099774370
 C          0.5248154123        3.3248100476       -0.9137516554
 C         -0.1709057198        2.3367154199       -1.7991170205
 H         -1.0556255974        2.6591704422       -2.3289390804
 H          0.4259778956        1.6226095405       -2.3445412486
 H          0.1263123838        4.3252670000       -0.8427084598
 H          1.6018460238        3.2758237695       -0.8448319110
 H         -1.2078971188        2.4537770131        0.1437338335
