  62
        -98.94343444
 C         -2.4993215044       -1.1373701537        0.0119441074
 C         -3.4530908969       -0.5939029272        0.9147583264
 C         -4.4138120135        0.3607339513        0.3545032762
 C         -4.3715596001        0.6527281865       -0.9577135402
 C         -5.2991826270        1.5832697148       -1.6905842700
 C         -4.9017721527        3.0629548076       -1.5984687367
 C         -5.1373797730        3.7162807903       -0.2360450556
 H         -5.0251155588        4.7934951294       -0.3740614871
 H         -6.1650564887        3.5342604750        0.0797772702
 C         -4.1692513382        3.2561626603        0.8629484356
 H         -3.7980045100        4.1263278825        1.4088791262
 H         -3.3024424926        2.7721993004        0.4066641807
 C         -4.7821677580        2.3048058258        1.8907519295
 H         -4.0000647669        2.0136444056        2.5964833819
 H         -5.5645618500        2.8232302882        2.4493457031
 C         -5.3781364626        1.0249986713        1.2900054588
 H         -5.5848057785        0.3270166843        2.1048881635
 H         -6.3124702295        1.2498021350        0.7760224205
 H         -5.4892655858        3.6043106518       -2.3436413433
 H         -3.8484408087        3.1594253828       -1.8718295817
 H         -5.2732992076        1.2843396612       -2.7407508782
 H         -6.3157489556        1.4545299847       -1.3177847419
 O         -3.4596183228        0.0962534697       -1.7957445274
 C         -2.4928170648       -0.7884754508       -1.3383634053
 O         -1.7183204074       -1.1738314994       -2.2390331402
 H          0.2252775018       -1.0437540317       -1.1930917244
 C          0.6058117161       -0.9835875191       -0.1839815579
 C         -0.1617246831       -1.4767276109        0.8616825232
 C          0.3392672129       -1.3826252867        2.1548489338
 C          1.5764112259       -0.8091212012        2.3911477197
 C          2.3353983831       -0.3134020196        1.3463458582
 C          1.8423266697       -0.3988980575        0.0506960107
 N          2.5894748528        0.1286962392       -1.0167436100
 S          4.2012597768       -0.3156752496       -1.1591799289
 O          4.5280155194       -0.1236871633       -2.5552111837
 O          4.4380061984       -1.6350766850       -0.6200236369
 C          5.0665537006        0.9019949868       -0.1895523005
 C          4.8362136988        2.2362815311       -0.4621432473
 C          5.5100862106        3.1957953313        0.2763856499
 C          6.4004207620        2.8073313764        1.2665550558
 C          6.6233508479        1.4637023394        1.5255658519
 C          5.9514417092        0.4987186676        0.7912569676
 H          6.0874124470       -0.5573691160        0.9615572058
 H          7.3158671228        1.1637713465        2.2955602009
 H          6.9231663509        3.5566490298        1.8397619998
 H          5.3387718924        4.2416572703        0.0782025038
 H          4.1381503525        2.4959607333       -1.2406266352
 H          2.1179738632        0.0574502123       -1.9072158084
 H          3.2987082390        0.1360032073        1.5242437999
 H          1.9531792738       -0.7441599872        3.4004299326
 H         -0.2534136015       -1.7546621713        2.9778285617
 C         -1.5015048382       -2.1227034058        0.5972848019
 H         -1.9272959646       -2.4121757926        1.5675544539
 C         -1.3328637959       -3.3751133880       -0.2414210378
 C         -0.8094673954       -4.6193587069        0.4083487872
 C         -2.2455409590       -4.5407464799       -0.0135233529
 H         -2.5674204227       -5.1168288778       -0.8680595714
 H         -2.9980921734       -4.4428711960        0.7553034557
 H         -0.1395572561       -5.2508539979       -0.1549231092
 H         -0.5884261274       -4.5767464351        1.4640735586
 H         -1.0300591640       -3.1748524252       -1.2611587945
 O         -3.5030808042       -0.9040938803        2.1342733383
