  62
        -98.93861362
 C         -1.8259420400       -1.0564680191       -0.1030994506
 C         -2.3739213600        0.0844943813       -0.7323893500
 C         -3.8412332700        0.2231279813       -0.6752710999
 C         -4.5726690800       -0.7178127090       -0.0492608303
 C         -6.0700458500       -0.8604047990        0.1290452897
 C         -7.0043588300        0.3188816511       -0.1294725197
 C         -6.8549078499        1.4821316906        0.8504556809
 H         -7.4977277299        2.2977034008        0.5119055113
 H         -7.2154272899        1.1595487002        1.8305295207
 C         -5.4351226699        2.0126375705        1.0343535211
 H         -5.4763019898        2.8350883401        1.7536712915
 H         -4.8062748299        1.2347979803        1.4721948106
 C         -4.7626580899        2.5380864411       -0.2325833587
 H         -5.3980332899        3.2923363313       -0.7009810483
 H         -3.8304796499        3.0246978909        0.0674103615
 C         -4.4070336100        1.4730744316       -1.2847083993
 H         -5.2594402601        1.2415297419       -1.9189439893
 H         -3.6217238800        1.8828437819       -1.9268587191
 H         -8.0233336200       -0.0654633589       -0.0311678198
 H         -6.8977793600        0.6673273416       -1.1525305295
 H         -6.3696331601       -1.6876053287       -0.5240379107
 H         -6.2140530400       -1.2118772795        1.1556453195
 O         -3.9953204800       -1.8115892793        0.5304280291
 C         -2.6257893500       -2.0053345593        0.5296111489
 O         -2.2502147300       -3.0382557796        1.1198410284
 H          1.8372542399        0.1645261913       -1.0813680402
 C          1.4607445600        0.5290005309       -0.1406517200
 C          0.3790862700       -0.0797949294        0.4754370897
 C         -0.0739283699        0.4351927300        1.6883117300
 C          0.5187397102        1.5478439097        2.2506548105
 C          1.5882470301        2.1638779800        1.6239292708
 C          2.0574368601        1.6508642606        0.4218013005
 N          3.1354987100        2.2592384209       -0.2379856892
 S          4.2970221000        1.3215491112       -0.9830467498
 O          5.4619214100        2.1777567912       -1.0512698494
 O          3.8137052399        0.8171164718       -2.2429849400
 C          4.5990312200       -0.0268152294        0.1461079596
 C          4.4232664199       -1.3280127292       -0.2754258211
 C          4.6513652200       -2.3607412896        0.6203615084
 C          5.0466301500       -2.0746218303        1.9174804885
 C          5.2240671001       -0.7610784905        2.3252162592
 C          4.9996467101        0.2744277400        1.4332540897
 H          5.1398534501        1.3047439998        1.7167834002
 H          5.5347672901       -0.5423843410        3.3341278293
 H          5.2197610300       -2.8801073706        2.6136244081
 H          4.5183261299       -3.3828185694        0.3027776979
 H          4.1113502599       -1.5069083486       -1.2913072912
 H          3.5409592201        3.0459941006        0.2465884011
 H          2.0462046202        3.0412014698        2.0547168112
 H          0.1471095202        1.9406128293        3.1850932507
 H         -0.9119425699       -0.0442084902        2.1763476298
 C         -0.3242828300       -1.2797360191       -0.1095622608
 H         -0.1421348200       -2.1413783394        0.5495128787
 C          0.1347615699       -1.6322503284       -1.5089550310
 C          1.3114600698       -2.5356066483       -1.7155582915
 C         -0.0729140002       -3.0303563182       -2.0058871017
 H         -0.3673037302       -3.1740056176       -3.0347415518
 H         -0.5197604902       -3.7363129285       -1.3207795920
 H          1.9694357398       -2.3365616980       -2.5486138515
 H          1.8078712999       -2.9145303088       -0.8351748117
 H         -0.0203229801       -0.8242920381       -2.2154318806
 O         -1.6760139600        0.9509776215       -1.3213408597
