  62
        -98.93639030
 C         -1.8254413795       -0.3128982612       -0.3688319004
 C         -2.9123289595       -1.1383762311       -0.0008741102
 C         -4.2346971496       -0.4930462512        0.0942436690
 C         -4.3397876496        0.8190558986       -0.1830106619
 C         -5.5673798797        1.6942707885       -0.1556017228
 C         -6.8434421695        1.1100361680       -0.7812130428
 C         -7.9217007398        0.7656073586        0.2476154670
 H         -7.9368059701        1.5476925790        1.0095888765
 H         -8.8946009996        0.7761590481       -0.2488533133
 C         -7.7629551198       -0.5954068510        0.9231867380
 H         -8.5024556901       -0.6540434206        1.7253006878
 H         -7.9993177595       -1.3841660915        0.2056826284
 C         -6.3787865700       -0.8777733405        1.5109485186
 H         -5.9828380102        0.0108967099        2.0010930781
 H         -6.4944593201       -1.6421351800        2.2823560790
 C         -5.3681982096       -1.4039319710        0.4807627992
 H         -4.8786542096       -2.3012337907        0.8719562400
 H         -5.8910186193       -1.7200141717       -0.4265948207
 H         -7.2533963493        1.8587018775       -1.4610957535
 H         -6.5957899092        0.2341851376       -1.3789134222
 H         -5.7618666701        1.9864324792        0.8793459169
 H         -5.2769013797        2.6043622282       -0.6854081433
 O         -3.2602613096        1.5791269685       -0.5262902420
 C         -1.9849373295        1.0480048286       -0.6242313413
 O         -1.1095368095        1.8744500085       -0.9427073316
 O         -2.7848843494       -2.3685037009        0.2448397207
 C         -0.4428126794       -0.9327491112       -0.4827674195
 C          0.4756552603       -0.2798921404        0.5191223603
 C          0.1994899599       -0.4492582296        1.8747176604
 C          0.9794737895        0.1609344211        2.8364561102
 C          2.0585524395        0.9460124110        2.4675424600
 C          2.3435004599        1.1220518202        1.1192564400
 C          1.5571602203        0.5046504595        0.1539031802
 H          1.7864625506        0.6798756688       -0.8829664399
 N          3.4164632500        1.9358369200        0.7241993898
 S          4.4599427204        1.4783534993       -0.4960156696
 O          5.5721396103        2.3955121995       -0.3788556998
 O          3.7815643508        1.4559663485       -1.7659634098
 C          4.9848509104       -0.1641125703       -0.0400876183
 C          6.0391189302       -0.2943037896        0.8433505721
 C          6.4193998902       -1.5619065193        1.2524097930
 C          5.7360958104       -2.6726397597        0.7805405735
 C          4.6796230507       -2.5248336504       -0.1046170769
 C          4.2967563307       -1.2593945007       -0.5212627179
 H          3.4833142609       -1.1078462012       -1.2109231982
 H          4.1503205609       -3.3889398707       -0.4733932765
 H          6.0298197904       -3.6595615695        1.1015419642
 H          7.2438869200       -1.6802234488        1.9368714333
 H          6.5492229000        0.5948609506        1.1767997116
 H          3.9244064397        2.3568029506        1.4881674297
 H          2.6658295392        1.4310922416        3.2166258699
 H          0.7498416592        0.0245110218        3.8824297002
 H         -0.6471622002       -1.0586274095        2.1598729105
 H         -0.5747055493       -1.9853024510       -0.1935790789
 C          0.0513848611       -0.8814991120       -1.9120232694
 C          1.0466337713       -1.8920359422       -2.3955180785
 C         -0.3759088785       -1.9579079727       -2.8627576388
 H         -0.5993621082       -1.6849053434       -3.8832025591
 H         -1.0073525986       -2.7425370725       -2.4721241085
 H          1.8023872415       -1.5741022826       -3.0987676584
 H          1.3778892512       -2.6403829917       -1.6912821079
 H          0.1162072711        0.1271515777       -2.3046550300
