  62
        -98.93821866
 C         -2.0662288800       -1.0872211753        0.2777541120
 C         -2.1292959878       -0.1588930852       -0.7910163224
 C         -2.3717681206        1.2424391990       -0.4047800208
 C         -2.4728676166        1.5707933908        0.8943693128
 C         -2.7580357914        2.9494756686        1.4151034550
 C         -4.2667743554        3.1841857657        1.5759323026
 C         -5.0867909699        2.7952000884        0.3458384501
 H         -5.0218271810        1.7141992076        0.2029715884
 H         -6.1308676417        3.0298914880        0.5634718057
 C         -4.6625775150        3.5022188807       -0.9488673159
 H         -4.0659921675        4.3835034069       -0.7110541537
 H         -5.5582230366        3.8462526577       -1.4702481392
 C         -3.8887183409        2.6188892121       -1.9294374146
 H         -4.4407302969        1.6917282382       -2.1026201455
 H         -3.8248072959        3.1455817310       -2.8852925712
 C         -2.4579710775        2.2540897427       -1.5130243243
 H         -1.9628992253        1.7947532399       -2.3741370463
 H         -1.9050789670        3.1585851908       -1.2492902437
 H         -4.4290909222        4.2388002560        1.8055615830
 H         -4.6191010400        2.5922586633        2.4237164420
 H         -2.2740434557        3.0529516047        2.3878269217
 H         -2.3337393015        3.6827258561        0.7317339637
 O         -2.3787151343        0.6577984163        1.8949690622
 C         -2.1595570706       -0.6774004003        1.6104535236
 O         -2.0838163972       -1.4091188353        2.6197117540
 H          0.3470448819       -1.0473641207       -0.6684260639
 C          0.6536509064       -1.8966894403       -0.0756635106
 C         -0.2927716558       -2.7971848811        0.3910534423
 C          0.1344750573       -3.8829104621        1.1461640387
 C          1.4772418182       -4.0542080250        1.4330866075
 C          2.4130663295       -3.1338322760        0.9974827114
 C          1.9948262446       -2.0440281027        0.2417945264
 N          2.9100311674       -1.0816889822       -0.2159149748
 S          2.3881440111        0.5278586659       -0.2521534673
 O          1.5930559902        0.8204708456        0.9197146776
 O          1.7779197224        0.7886483060       -1.5310151366
 C          3.9599757339        1.3675007312       -0.1622428404
 C          4.4267260227        1.8017069148        1.0639657520
 C          5.6667776082        2.4178834410        1.1293854237
 C          6.4164186830        2.5846522077       -0.0253883709
 C          5.9345554375        2.1437843746       -1.2491085186
 C          4.6949839587        1.5283095386       -1.3218107350
 H          4.2738875395        1.1770149498       -2.2493702233
 H          6.5186018397        2.2775369250       -2.1452381044
 H          7.3811282139        3.0637685106        0.0285731860
 H          6.0417627339        2.7645389715        2.0788250177
 H          3.8044625526        1.6569715054        1.9328000536
 H          3.8207179272       -1.1678024739        0.2152068776
 H          3.4572339663       -3.2522354577        1.2437730400
 H          1.7962150888       -4.9010404812        2.0214424730
 H         -0.5960185838       -4.5796456812        1.5302563804
 C         -1.7563948864       -2.5668036488        0.1050525062
 H         -2.3259314952       -3.0859258479        0.8943709101
 C         -2.1959555822       -3.1493082334       -1.2287814461
 C         -1.2422648647       -3.4394457662       -2.3442365560
 C         -1.8595145240       -4.5689421806       -1.5789749108
 H         -2.6133484922       -5.1703517860       -2.0638258785
 H         -1.2241630875       -5.1154125705       -0.8989693843
 H         -0.1974130545       -3.2199853504       -2.1855558950
 H         -1.5762524697       -3.2405271800       -3.3508551150
 H         -3.1796568373       -2.7962568275       -1.5187586250
 O         -2.0048580195       -0.4564112854       -2.0067911298
