  62
        -98.93891983
 C         -2.3623775001       -1.1144163486       -0.0836824799
 C         -3.4870783699       -0.9101256686        0.7498008504
 C         -4.5038619399        0.0530195715        0.2851921507
 C         -4.2974522401        0.6982483617       -0.8780462792
 C         -5.1641835701        1.7385522620       -1.5375983788
 C         -5.0670155198        3.1141941918       -0.8605721686
 C         -5.1385612095        3.0850048215        0.6635649414
 H         -4.3248860995        2.4671536714        1.0476452811
 H         -4.9685230794        4.1035190115        1.0225349616
 C         -6.4652483695        2.5996782916        1.2432011516
 H         -7.2735447895        3.2291476017        0.8647062018
 H         -6.4150009093        2.7398123914        2.3259596916
 C         -6.8180508497        1.1350115717        0.9724489613
 H         -7.6259028296        0.8631358816        1.6579526614
 H         -7.2093351899        1.0016614719       -0.0326122986
 C         -5.6803913997        0.1514863015        1.2264975310
 H         -5.2602023095        0.3361938113        2.2216837009
 H         -6.0984445498       -0.8610863585        1.2757310808
 H         -4.1107210798        3.5627902718       -1.1414275187
 H         -5.8646293198        3.7473239820       -1.2532489483
 H         -6.1949434201        1.3983300821       -1.5725738387
 H         -4.8097526402        1.8324791521       -2.5666199689
 O         -3.1819096202        0.4905357318       -1.6355223194
 C         -2.1982582103       -0.4126235984       -1.2768248198
 O         -1.2606718804       -0.4976340484       -2.0945293499
 O         -3.6456329698       -1.5122667688        1.8456873903
 C         -1.3124598201       -2.1206978588        0.3566768198
 C         -0.0261001700       -1.3895298890        0.6479489597
 C          0.1062357403       -0.7039187692        1.8528531298
 C          1.2523334704        0.0152112906        2.1326903697
 C          2.2891186902        0.0722674106        1.2165460295
 C          2.1583107300       -0.5908690091        0.0046245894
 C          1.0123174798       -1.3284947689       -0.2667898305
 H          0.9211127996       -1.8299168888       -1.2170205906
 N          3.1993088398       -0.5463086291       -0.9356819908
 S          4.0197528099        0.8907242809       -1.1993587706
 O          3.1877155401        2.0466899109       -0.9575132203
 O          4.5768408496        0.7656730811       -2.5286959708
 C          5.3479471301        0.8303252605       -0.0125395009
 C          6.1323781600       -0.3058884096        0.0282950288
 C          7.1751795201       -0.3674046198        0.9385482686
 C          7.4177479504        0.7035089200        1.7858869087
 C          6.6246316105        1.8391007701        1.7295438791
 C          5.5789345504        1.9063346004        0.8217121193
 H          4.9331052005        2.7669673504        0.7467264095
 H          6.8149352707        2.6712885099        2.3881361392
 H          8.2293851105        0.6527753498        2.4943679986
 H          7.7938780401       -1.2490879699        0.9850837983
 H          5.9125255298       -1.1148222094       -0.6480422713
 H          2.9746798896       -1.0012153589       -1.8086926508
 H          3.1811890403        0.6398123205        1.4246672395
 H          1.3427019006        0.5381837704        3.0726858098
 H         -0.7089698696       -0.7359353493        2.5624118099
 H         -1.6900084700       -2.5363026189        1.3007581697
 C         -1.1650713104       -3.2456309586       -0.6465263605
 C         -0.4529264305       -4.5011811388       -0.2434134908
 C         -1.9377975106       -4.5128813586       -0.4437893406
 H         -2.3385929808       -5.0150135484       -1.3116067406
 H         -2.5721957704       -4.5758969187        0.4280375695
 H          0.1680580593       -4.9993444887       -0.9721767210
 H         -0.0770806403       -4.5553588590        0.7669185191
 H         -1.0474277906       -2.8979314185       -1.6661574404
