  62
        -98.93761280
 C         -1.1640252294       -0.8590529403        0.6245601893
 C         -1.9186747694       -0.6180232592       -0.5474221905
 C         -2.9330991295        0.4518551406       -0.4693830395
 C         -3.0431326395        1.1849162496        0.6529913412
 C         -3.9376639596        2.3573476892        0.9989532923
 C         -5.1438998497        2.7041885199        0.1302270127
 C         -6.2710139496        1.6720735698        0.1582472418
 H         -6.7375400596        1.6952568088        1.1463014518
 H         -7.0251723996        1.9710375404       -0.5728760779
 C         -5.8524897295        0.2305642801       -0.1197605896
 H         -5.1692515394       -0.1091999706        0.6612401901
 H         -6.7472685394       -0.3947396801       -0.0593826902
 C         -5.2078315595       -0.0117382986       -1.4830526298
 H         -5.8652277795        0.3589185021       -2.2717973595
 H         -5.1073325194       -1.0927441085       -1.6119689609
 C         -3.8131818595        0.6088162317       -1.6759579493
 H         -3.3131199295        0.0749398425       -2.4896581098
 H         -3.8803636396        1.6542057320       -1.9683557183
 H         -5.5465159897        3.6434252795        0.5194728636
 H         -4.8276905997        2.8983216409       -0.8905695671
 H         -4.2747575796        2.1823470782        2.0259255722
 H         -3.2751208197        3.2297670592        1.0373196031
 O         -2.2289829895        0.9734030986        1.7294083210
 C         -1.2764156594       -0.0286871613        1.7400798500
 O         -0.5948406694       -0.0745198522        2.7847470900
 H          0.9609212805        0.3397344507       -0.1882151497
 C          1.3148492306       -0.4905655088       -0.7800663205
 C          0.8399701707       -1.7676754390       -0.5119400117
 C          1.2679363707       -2.8147959283       -1.3166170126
 C          2.1452328207       -2.5761319272       -2.3611934824
 C          2.6317399306       -1.3057636269       -2.6104029013
 C          2.2049498605       -0.2502120577       -1.8119924303
 N          2.6656898604        1.0585509125       -2.0201399091
 S          2.8688333004        2.0760309113       -0.7110122181
 O          1.5951414803        2.5745454508       -0.2531581376
 O          3.8018169803        3.0780567718       -1.1820031772
 C          3.6481096505        1.0668898502        0.5379794209
 C          2.9748889605        0.7210694691        1.6914678906
 C          3.6005954506       -0.1091945818        2.6087121298
 C          4.8818713507       -0.5749974614        2.3602823093
 C          5.5505679206       -0.2090872903        1.2016055797
 C          4.9289687005        0.6165768405        0.2800481905
 H          5.4196982005        0.9304066914       -0.6268102093
 H          6.5496554806       -0.5674961700        1.0136094293
 H          5.3608826707       -1.2245928521        3.0756418087
 H          3.0719568807       -0.3892934526        3.5062000596
 H          1.9752359805        1.0905816388        1.8625748010
 H          3.4027272604        1.1548843232       -2.7024226190
 H          3.3211707205       -1.1266842561       -3.4208915011
 H          2.4622481607       -3.3961851366       -2.9873813232
 H          0.9009133908       -3.8126673684       -1.1420807436
 C         -0.0800554193       -1.9211779302        0.6753233782
 H          0.5117122807       -1.6670327610        1.5715062484
 C         -0.5840932892       -3.3415734505        0.8841425169
 C         -1.9424092191       -3.6064588511        1.4607040567
 C         -1.6550245791       -3.9506553997        0.0317226664
 H         -1.5657236091       -4.9941724995       -0.2334770746
 H         -2.0824002692       -3.3350436490       -0.7430226330
 H         -2.0488473690       -4.4082289018        2.1762286560
 H         -2.5747109592       -2.7536352913        1.6631380175
 H          0.2086665109       -4.0060179507        1.2138237563
 O         -1.7628765894       -1.2535534882       -1.6218786711
