  62
        -98.93388478
 C         -1.9454049910       -0.9876043465        0.1987563339
 C         -2.3605306388        0.0053719092        1.1171688509
 C         -2.6864217523        1.3326745559        0.5692705143
 C         -2.5292458597        1.5555570160       -0.7485632141
 C         -2.7126448924        2.8094014528       -1.5784930428
 C         -3.4468949781        4.0216946380       -1.0118807457
 C         -4.9418997913        3.8102554340       -0.7742199307
 H         -5.4380186099        3.7244445674       -1.7440905523
 H         -5.3373493383        4.6970451014       -0.2744567668
 C         -5.3103874576        2.5739012419        0.0417547753
 H         -4.9994331399        1.6751913936       -0.4948067546
 H         -6.4000230861        2.5396918551        0.1240201581
 C         -4.7368720333        2.5292775169        1.4567206856
 H         -5.2019074244        1.6860418881        1.9745861655
 H         -5.0076029663        3.4409614474        1.9926116937
 C         -3.2122577489        2.3423851049        1.5487026788
 H         -2.9767357143        1.9528419900        2.5437524732
 H         -2.6879348527        3.2892602523        1.4405462553
 H         -3.3395481364        4.8220676022       -1.7490421851
 H         -2.9591740803        4.3638583288       -0.1037994564
 H         -3.2087106384        2.4878096180       -2.4999265441
 H         -1.7003007834        3.1172727312       -1.8639711305
 O         -2.0853040943        0.5792221889       -1.5919419292
 C         -1.7725354625       -0.6977515468       -1.1541877014
 O         -1.3706160129       -1.4534719465       -2.0587463569
 O         -2.4453990136       -0.2049860405        2.3589635193
 C         -1.5547388433       -2.3458864980        0.7511259731
 C         -0.1995929060       -2.7469616030        0.2203891802
 C          0.0968382181       -4.0071925416       -0.2796105084
 C          1.3730476993       -4.2956687673       -0.7341327450
 C          2.3696263687       -3.3396418360       -0.7121822503
 C          2.0790221408       -2.0681703408       -0.2245268134
 C          0.8125486239       -1.7943194849        0.2591158327
 H          0.5997586220       -0.8103588775        0.6536837801
 N          3.0556230535       -1.0597166603       -0.2578157675
 S          2.8374094798        0.4138117881        0.5114220427
 O          2.6766844506        0.2308332235        1.9388521716
 O          1.7953914392        1.1489013823       -0.1623523948
 C          4.4197310426        1.1619063119        0.1725425401
 C          4.6348367818        1.7093127944       -1.0782500576
 C          5.8700013230        2.2699937608       -1.3614678048
 C          6.8648369887        2.2736368599       -0.3947210601
 C          6.6340129866        1.7225953873        0.8565985304
 C          5.4007816670        1.1593608765        1.1458022687
 H          5.1718297685        0.7276481388        2.1067689425
 H          7.4078555942        1.7299637621        1.6070542947
 H          7.8248366044        2.7117303641       -0.6175419730
 H          6.0512905565        2.7017872599       -2.3325027206
 H          3.8280404631        1.6907779404       -1.7926982785
 H          4.0053391640       -1.3981674522       -0.2083874964
 H          3.3585614354       -3.5621898001       -1.0815819759
 H          1.5908147623       -5.2803991606       -1.1191100961
 H         -0.6714362994       -4.7609454056       -0.3297807674
 H         -1.4455741021       -2.1726768983        1.8364749431
 C         -2.6166597665       -3.4243347207        0.5905789697
 C         -4.0504644083       -3.0715171944        0.3333923988
 C         -3.2391269466       -3.7345896346       -0.7367114862
 H         -3.4528385860       -4.7664534830       -0.9742585772
 H         -2.9204444873       -3.1446811827       -1.5814757473
 H         -4.8163683592       -3.6453899856        0.8334416114
 H         -4.2950766577       -2.0256782569        0.2147334454
 H         -2.4474647718       -4.2646255856        1.2569805648
