  62
        -98.94329659
 C          2.5098168316        1.0696834264       -0.1533150414
 C          3.6490437718        0.8729022276        0.6642515699
 C          4.6627287072       -0.0471402235        0.1378646338
 C          4.4772620168       -0.6287957531       -1.0612718521
 C          5.4281853056       -1.5763147490       -1.7410264363
 C          5.2861047174       -3.0355073924       -1.2865080097
 C          5.8144155138       -3.3343564579        0.1170804677
 H          5.8527144804       -4.4206041325        0.2201331982
 H          6.8357992567       -2.9630594218        0.2065024683
 C          4.9549057907       -2.7614254860        1.2526495917
 H          3.9664644256       -2.5019601330        0.8661890418
 H          4.8075811825       -3.5255335644        2.0192412682
 C          5.5535660002       -1.5363428137        1.9439371139
 H          6.4807018465       -1.8165255864        2.4488434907
 H          4.8475386024       -1.1922954903        2.7041453108
 C          5.8462069269       -0.3602757864        1.0028742929
 H          6.0560282772        0.5224387565        1.6119823549
 H          6.7201233242       -0.5776026396        0.3892752622
 H          5.8385384344       -3.6533108236       -1.9982309620
 H          4.2328665631       -3.3190064010       -1.3475551319
 H          6.4540947430       -1.2426793569       -1.5829003896
 H          5.2062935947       -1.5256603687       -2.8091225519
 O          3.3762282627       -0.3991424847       -1.8247489578
 C          2.3568445200        0.4335834621       -1.3851691965
 O          1.3977216766        0.5265676261       -2.1743463427
 O          3.8095126304        1.4383170651        1.7789854224
 C          1.4049784416        1.9850616855        0.3450362663
 C          0.1470658688        1.1757459436        0.5412516189
 C          0.1608885197        0.1464148180        1.4800670378
 C         -0.9550494830       -0.6411045212        1.6825982514
 C         -2.1102533546       -0.4242955366        0.9506024121
 C         -2.1384109517        0.6029239507        0.0186871487
 C         -1.0162169023        1.4007528321       -0.1755656331
 H         -1.0535153317        2.1916085938       -0.9082222639
 N         -3.2985334400        0.8191479956       -0.7397270147
 S         -4.7952435489        0.8140696466        0.0113848983
 O         -5.6529520574        1.5920278531       -0.8556555698
 O         -4.7018142805        1.2553600514        1.3836813358
 C         -5.3034406486       -0.8913104197       -0.0497545333
 C         -5.3132511732       -1.5238497185       -1.2773800770
 C         -5.7148044421       -2.8483209769       -1.3443886131
 C         -6.1002137153       -3.5134823675       -0.1898773558
 C         -6.0886110016       -2.8633204852        1.0345263861
 C         -5.6873931162       -1.5384342468        1.1083313381
 H         -5.6576813503       -0.9945525494        2.0391539540
 H         -6.3888763204       -3.3821429413        1.9307563562
 H         -6.4112768056       -4.5447567736       -0.2452551988
 H         -5.7245835070       -3.3572711826       -2.2948295291
 H         -5.0081056660       -0.9725812870       -2.1512420256
 H         -3.2208205647        1.5677359126       -1.4119769765
 H         -2.9829652176       -1.0387061416        1.0991337650
 H         -0.9272825265       -1.4351842730        2.4134058490
 H          1.0654109758       -0.0269124706        2.0471893653
 H          1.7411322815        2.3350874348        1.3317935159
 C          1.2398248844        3.1834180312       -0.5641801571
 C          0.5889211953        4.4296424509       -0.0447445185
 C          2.0638096424        4.4082517864       -0.3091342104
 H          2.4446650865        4.9586159701       -1.1563397741
 H          2.7359525387        4.3886616025        0.5361259472
 H         -0.0431160846        4.9994131772       -0.7093734730
 H          0.2565037653        4.4275890837        0.9824679852
 H          1.0671042745        2.9079693897       -1.5984073645
