  62
        -98.93909347
 C          1.9696948863        0.9024264763        0.0986236177
 C          2.2562737686       -0.0471917098        1.1035183799
 C          2.3692268692       -1.4492049580        0.6692251254
 C          2.1703427843       -1.7476132114       -0.6265162178
 C          2.2744396936       -3.0985012728       -1.2797903753
 C          3.6859653839       -3.3239274492       -1.8485733442
 C          4.6920510502       -3.9145833732       -0.8613884934
 H          4.4359509902       -4.9587429561       -0.6708329841
 H          5.6702730985       -3.8993541940       -1.3471103477
 C          4.7981535489       -3.1849625456        0.4801486395
 H          5.7605130536       -3.4424505816        0.9264322501
 H          4.7960801000       -2.1062770054        0.3137382213
 C          3.6791682151       -3.5618069268        1.4626010523
 H          3.1572787224       -4.4425824907        1.0890865001
 H          4.1189056296       -3.8451016866        2.4210884666
 C          2.6634695677       -2.4476044936        1.7558725994
 H          1.7163373778       -2.8965498610        2.0758936256
 H          3.0184854067       -1.8429495672        2.5967421303
 H          3.6144957253       -3.9990603486       -2.7036506277
 H          4.0526619082       -2.3634917210       -2.2195188515
 H          1.9987023312       -3.8839118136       -0.5821745352
 H          1.5586343700       -3.0959892107       -2.1047161007
 O          1.8918628592       -0.8010071196       -1.5647029666
 C          1.7637028444        0.5343586029       -1.2307207338
 O          1.4878131109        1.2830429527       -2.1883012041
 O          2.4163766197        0.2640530216        2.3170163285
 C          1.7787312621        2.3571794462        0.4859758734
 C          0.3753605257        2.7871424463        0.1331969820
 C          0.0722188065        4.0051570919       -0.4611558271
 C         -1.2358978305        4.3153064672       -0.7918927632
 C         -2.2607838210        3.4196384218       -0.5510524758
 C         -1.9698116275        2.2061456407        0.0631075384
 C         -0.6648969462        1.9112065453        0.4176198348
 H         -0.4523967115        0.9637607851        0.8930091674
 N         -2.9862985364        1.2761592975        0.3480027513
 S         -2.6077647738       -0.3668528401        0.2323618984
 O         -1.9976044092       -0.7910063839        1.4688305162
 O         -1.8630673683       -0.6334581253       -0.9778357282
 C         -4.2498980668       -1.0541386204        0.1161335672
 C         -4.7563066482       -1.4011653185       -1.1219286026
 C         -6.0472688504       -1.8998983046       -1.2024755077
 C         -6.8067294900       -2.0383850079       -0.0504739995
 C         -6.2845240537       -1.6862674616        1.1854280419
 C         -4.9941133537       -1.1886705677        1.2731909075
 H         -4.5413012681       -0.9100878738        2.2103602571
 H         -6.8768020146       -1.7977737642        2.0791985366
 H         -7.8110531976       -2.4258586687       -0.1162104954
 H         -6.4540477761       -2.1773251411       -2.1615218231
 H         -4.1251261048       -1.2815771342       -1.9881387134
 H         -3.8502588006        1.4863512194       -0.1340999403
 H         -3.2760409783        3.6531121340       -0.8335190689
 H         -1.4569872526        5.2617472613       -1.2615755962
 H          0.8617018023        4.7056879631       -0.6787918280
 H          1.8844196094        2.3863708812        1.5813179926
 C          2.8528498929        3.2265438547       -0.1333569810
 C          3.3095434264        4.4750889993        0.5589423724
 C          4.2046653973        3.2746537262        0.5114158130
 H          5.0775469084        3.3033839466       -0.1232428435
 H          4.3407131696        2.6991104710        1.4155029948
 H          3.5722237966        5.3315373357       -0.0434416343
 H          2.8448106751        4.7217780096        1.5015217753
 H          2.8138933481        3.2220808070       -1.2169850165
