  62
        -98.94395488
 C         -1.3726514141       -1.6111331991       -0.6305465632
 C         -2.5950863371       -1.5581816495        0.0870984408
 C         -3.5608927503       -0.5359257111       -0.3311559589
 C         -3.2536077096        0.2708870888       -1.3626612134
 C         -4.1090177877        1.4020148573       -1.8535145340
 C         -3.7311890095        2.7167438261       -1.1572676659
 C         -3.6472182560        2.6087727270        0.3655307391
 H         -2.8020114717        1.9670914495        0.6284226279
 H         -3.4128869906        3.6052596740        0.7473626600
 C         -4.9238099840        2.0865303046        1.0401159330
 H         -5.1344057400        2.7073636250        1.9134973045
 H         -5.7693086275        2.1880091350        0.3585866783
 C         -4.8393493328        0.6402311807        1.5319297832
 H         -5.6972707316        0.4520756267        2.1830822088
 H         -3.9358025602        0.5122043526        2.1340090229
 C         -4.8463719120       -0.4372339279        0.4402709706
 H         -4.9769140071       -1.4064694787        0.9305359702
 H         -5.6903311887       -0.2745624885       -0.2330959475
 H         -4.4647008754        3.4775992686       -1.4315374836
 H         -2.7523567062        3.0361329659       -1.5238450437
 H         -5.1558631879        1.1677895644       -1.6696439444
 H         -3.9525291763        1.5126395602       -2.9279941499
 O         -2.0918731106        0.1714438092       -2.0513379609
 C         -1.1024167913       -0.7349239946       -1.6830689550
 O         -0.0763441741       -0.6541709073       -2.3824247020
 O         -2.8637122312       -2.3398339960        1.0401163869
 C         -0.3494934307       -2.6148577879       -0.1294698724
 C          0.4390517379       -2.0298497453        1.0179886206
 C          0.8010164614       -2.8053890500        2.1135355098
 C          1.5177846557       -2.2492903336        3.1586106957
 C          1.8749931383       -0.9133910833        3.1384814083
 C          1.5003304289       -0.1228149852        2.0558983843
 C          0.8024042872       -0.6914643279        1.0007372903
 H          0.5068139167       -0.0706412817        0.1716016231
 N          1.7908829407        1.2430914419        2.0432084056
 S          1.8216388162        2.2024594400        0.6805854765
 O          2.2887484321        3.4783640457        1.1815326396
 O          0.5342516811        2.2107474648        0.0341773925
 C          3.0877623149        1.5008542530       -0.3604918968
 C          2.7731819396        0.7782823725       -1.4922392099
 C          3.8078760838        0.2511915890       -2.2522332466
 C          5.1247938531        0.4467068287       -1.8701479098
 C          5.4234355721        1.1761792697       -0.7284174239
 C          4.3974881973        1.7087627024        0.0327334662
 H          4.5857046280        2.3000995601        0.9140110173
 H          6.4485618349        1.3313552130       -0.4331142405
 H          5.9215089131        0.0310461136       -2.4665904631
 H          3.5667364112       -0.3129021674       -3.1388373993
 H          1.7433592738        0.6216105210       -1.7748339629
 H          2.3888627315        1.5802420789        2.7808700287
 H          2.4195613884       -0.4765439785        3.9611974104
 H          1.7943848669       -2.8606110708        4.0040480411
 H          0.4972423715       -3.8408955505        2.1550554570
 H         -0.9429258029       -3.4495411647        0.2785598875
 C          0.5435374922       -3.1804937826       -1.2236059368
 C          1.9768501160       -2.7853949412       -1.3918172596
 C          1.6351113080       -4.1550908057       -0.8925114235
 H          1.7856791540       -4.9978228741       -1.5499547815
 H          1.8218302097       -4.3666775100        0.1487241177
 H          2.3485903840       -2.6729289218       -2.3979795033
 H          2.3909008115       -2.0722336785       -0.6954045864
 H         -0.0120702111       -3.3666172249       -2.1368308541
