  62
        -98.94392601
 C          2.1302517513        1.2258513762       -0.1785118485
 C          2.5694358599        0.1350084953       -0.9664562277
 C          3.9752098728       -0.2574766892       -0.7863083528
 C          4.7471512842        0.4261074946        0.0780287636
 C          6.1760361808        0.0977376779        0.3982304213
 C          6.2700815244       -0.8617436840        1.5928768627
 C          5.3546418901       -2.0808926117        1.4796903973
 H          5.5286216375       -2.7013280369        2.3615367428
 H          4.3135677692       -1.7518835586        1.5193971435
 C          5.5704599288       -2.9210997969        0.2132445210
 H          6.5417098746       -2.6884262939       -0.2250302427
 H          5.5853677367       -3.9769419076        0.4917861827
 C          4.4825903671       -2.7569584712       -0.8498734695
 H          3.4991071932       -2.8989546970       -0.3940808046
 H          4.6139325599       -3.5462995025       -1.5949784296
 C          4.4774898552       -1.4179829232       -1.5982055058
 H          5.4753399385       -1.2119232041       -1.9909419493
 H          3.7881944572       -1.5133103999       -2.4424046154
 H          6.0002233132       -0.3142132694        2.4988660043
 H          7.3062249290       -1.1906525024        1.6907956845
 H          6.6947570587        1.0250865447        0.6470273729
 H          6.6466091988       -0.3468787140       -0.4764453122
 O          4.2924551855        1.4779286355        0.8056919136
 C          2.9753733580        1.8938193031        0.7084957931
 O          2.6816839927        2.8532124335        1.4496963268
 O          1.8325529533       -0.4793620399       -1.7815176311
 C          0.6905999586        1.7038476442       -0.2663297064
 C         -0.2288827403        0.5847807477        0.1572764289
 C         -0.1303750130        0.1024846016        1.4601844660
 C         -0.9387442319       -0.9290267916        1.8972001845
 C         -1.8645585126       -1.5042130896        1.0437208881
 C         -1.9720484310       -1.0294005476       -0.2557050199
 C         -1.1656655068        0.0158883923       -0.6897341195
 H         -1.2595254365        0.3675001814       -1.7048030853
 N         -2.9182802458       -1.6037289345       -1.1234971703
 S         -4.4916743458       -1.7301635026       -0.5669156441
 O         -4.6023230761       -2.8542482505        0.3282209232
 O         -5.3142116000       -1.7815466815       -1.7546073672
 C         -4.7679036253       -0.2098189452        0.3245873365
 C         -4.8136241004        0.9651123140       -0.3998205275
 C         -4.9629014254        2.1646255715        0.2762856044
 C         -5.0569317746        2.1691458889        1.6598056874
 C         -5.0123037863        0.9811355111        2.3722917824
 C         -4.8637506169       -0.2221283410        1.7008728233
 H         -4.8249862704       -1.1673145705        2.2169064404
 H         -5.0878582202        0.9883368320        3.4477172383
 H         -5.1673315090        3.1048239930        2.1849246890
 H         -5.0005713497        3.0902515483       -0.2754503993
 H         -4.7446964611        0.9234514026       -1.4749258128
 H         -2.8928043523       -1.2266630441       -2.0594790637
 H         -2.4977446398       -2.3166046440        1.3615359297
 H         -0.8469817627       -1.2925611674        2.9095001998
 H          0.5973114953        0.5491139288        2.1245026040
 H          0.5977322592        2.5141688879        0.4702093363
 C          0.3931891089        2.2613653683       -1.6419845472
 C         -0.7520160858        3.2100736387       -1.8275268772
 C          0.6580556561        3.7110288732       -1.9097776925
 H          1.0516936728        3.9927012477       -2.8749658077
 H          1.0413558989        4.3053233510       -1.0931430233
 H         -1.3281201563        3.1541096032       -2.7388466062
 H         -1.3301524658        3.4678599742       -0.9532414341
 H          0.6148801969        1.5606167666       -2.4384798670
