  62
        -98.94077171
 C         -1.1435604299       -1.3572669802        0.1273582412
 C         -1.5458678503       -0.3893788302        1.0775704610
 C         -2.4158432807        0.6934656794        0.5909728208
 C         -2.7221547207        0.7415680591       -0.7170960392
 C         -3.6457347410        1.7057103986       -1.4095649694
 C         -5.0698862008        1.1285978081       -1.4860481593
 C         -5.9508852109        1.4317076279       -0.2747897694
 H         -6.2089556613        2.4928408878       -0.2751055996
 H         -6.8793282307        0.8697301376       -0.3996283793
 C         -5.3412243208        1.0764924584        1.0839188307
 H         -4.8528302205        0.1021391885        1.0242591909
 H         -6.1580457408        0.9840686882        1.8024696307
 C         -4.3461488913        2.1290704988        1.5954045006
 H         -4.6124553314        2.4112612589        2.6161309005
 H         -4.4400189216        3.0316925587        0.9922149604
 C         -2.8787338311        1.6775162894        1.6299818907
 H         -2.2306465514        2.5588128296        1.5865962106
 H         -2.6727796109        1.1881657496        2.5870654708
 H         -4.9884017004        0.0470551881       -1.6210602091
 H         -5.5647043809        1.5310772478       -2.3722724294
 H         -3.2665612310        1.8277153186       -2.4262756494
 H         -3.6465002214        2.6714105987       -0.9130405795
 O         -2.2414151103       -0.1609681809       -1.6138810490
 C         -1.4436085899       -1.2246961305       -1.2284719088
 O         -1.0797145296       -1.9535622405       -2.1693965487
 O         -1.2021696503       -0.4356774399        2.2906558110
 C         -0.2905965795       -2.5217823498        0.6056026914
 C          1.1297817905       -2.2675754393        0.1682067914
 C          1.7401996307       -2.9238991493       -0.8918956185
 C          3.0259662606       -2.5829953788       -1.2785517385
 C          3.7289500102       -1.5925648585       -0.6163985186
 C          3.1251704799       -0.9322564685        0.4463267813
 C          1.8376959001       -1.2703877589        0.8301887613
 H          1.3616428098       -0.7470797790        1.6497474712
 N          3.8324235895        0.0924136819        1.1184843811
 S          4.0617744590        1.5022808818        0.2469560009
 O          4.8135557592        1.1941360619       -0.9417043190
 O          4.6652233986        2.4397043922        1.1655642808
 C          2.4229418788        2.0553704711       -0.1912835492
 C          1.8297330584        3.0510716010        0.5583944506
 C          0.5453004783        3.4575865005        0.2364039305
 C         -0.1250132615        2.8549588601       -0.8166130094
 C          0.4792729289        1.8464541702       -1.5510815393
 C          1.7661658091        1.4398500707       -1.2384877492
 H          2.2646151194        0.6636563808       -1.7967756290
 H         -0.0479260708        1.3672616298       -2.3614182892
 H         -1.1238603416        3.1712465196       -1.0707130195
 H          0.0720075580        4.2417593804        0.8054785404
 H          2.3892369082        3.4956139113        1.3658533105
 H          3.4224310094        0.3283559318        2.0122208011
 H          4.7231276201       -1.3052414481       -0.9174119586
 H          3.4869486008       -3.0968162088       -2.1085692484
 H          1.2022851910       -3.6884486295       -1.4273840384
 H         -0.3168964995       -2.4677357896        1.7028738514
 C         -0.8433047089       -3.8614027601        0.1719519616
 C         -0.3650280885       -5.1056851698        0.8567040218
 C         -1.7578788887       -4.6073781803        1.0949524317
 H         -2.5833842185       -5.1571474506        0.6683425817
 H         -1.9825967289       -4.1565064902        2.0506586016
 H         -0.2326056881       -6.0005732598        0.2682819119
 H          0.3574621614       -4.9908915194        1.6506363418
 H         -1.0594207689       -3.9153349503       -0.8876373084
