  62
        -98.94106914
 C         -1.8838698056       -0.8947958746        0.2769707185
 C         -2.3157576910        0.0964892371        1.1928129286
 C         -2.6272603672        1.4148862591        0.6272774214
 C         -2.4222009802        1.6292734925       -0.6847531235
 C         -2.7423710776        2.9064129304       -1.4054563369
 C         -4.1709743482        2.8844252607       -1.9677865249
 C         -5.2285942385        2.4541922424       -0.9511920101
 H         -6.1985098628        2.5033412510       -1.4505505327
 H         -5.0582189894        1.4093781686       -0.6815133364
 C         -5.2661451380        3.3063039719        0.3250753458
 H         -4.7528936437        4.2529834507        0.1533079127
 H         -6.3067254946        3.5383998750        0.5608398122
 C         -4.6713868001        2.6261791132        1.5596593109
 H         -5.1177711228        1.6363108605        1.6842299873
 H         -4.9400543269        3.2190043392        2.4379289793
 C         -3.1452191372        2.4691532385        1.5649352753
 H         -2.6733240677        3.4322347898        1.3582801350
 H         -2.8450034026        2.1497069979        2.5674745526
 H         -4.4087073880        3.8812105086       -2.3434178953
 H         -4.2000700649        2.1874209190       -2.8084322810
 H         -2.6216733182        3.7428341601       -0.7195132104
 H         -2.0348977023        3.0198083947       -2.2287292237
 O         -1.9413391759        0.6767521420       -1.5217911673
 C         -1.6541665648       -0.6038403362       -1.0690715075
 O         -1.2219487900       -1.3642095021       -1.9555874735
 H          0.6958970482       -0.8814442870        1.0444833947
 C          0.8697879565       -1.8156936901        0.5281694720
 C         -0.1893349838       -2.6924767070        0.3242107731
 C          0.0549176239       -3.8870618945       -0.3388689026
 C          1.3247747957       -4.1773336111       -0.8076303662
 C          2.3661267711       -3.2853283881       -0.6368739062
 C          2.1336766526       -2.0908751282        0.0375426585
 N          3.1774401578       -1.1715273309        0.2504474180
 S          2.8092733328        0.4749549873        0.2911329325
 O          2.3080988157        0.8042672865        1.6033089994
 O          1.9704250075        0.8430963332       -0.8278897168
 C          4.4458819086        1.1564338427        0.0927238734
 C          5.2778606954        1.2107256582        1.1952284352
 C          6.5640306916        1.7028068685        1.0402925260
 C          6.9950299849        2.1293177825       -0.2072758551
 C          6.1481519701        2.0711726862       -1.3038845782
 C          4.8609031211        1.5782658487       -1.1561083679
 H          4.1641617602        1.5199416222       -1.9772023406
 H          6.4840857668        2.4065886060       -2.2718122781
 H          7.9964129342        2.5119635888       -0.3254065792
 H          7.2240973812        1.7519019132        1.8911620025
 H          4.8944079310        0.8762841223        2.1449611252
 H          3.9781916962       -1.3511404483       -0.3404824975
 H          3.3493318671       -3.5040222012       -1.0249603934
 H          1.5004493987       -5.1048586976       -1.3312935933
 H         -0.7527874069       -4.5777422024       -0.5165224999
 C         -1.5442540475       -2.2672115957        0.8316107987
 H         -1.4592786012       -2.1048440200        1.9202348790
 C         -2.6298484258       -3.3141758470        0.6330050009
 C         -4.0636871482       -2.9145844166        0.4573008778
 C         -3.3098564819       -3.5209644279       -0.6860294581
 H         -3.5567570904       -4.5301043473       -0.9819208045
 H         -3.0111340144       -2.8847537253       -1.5040897305
 H         -4.8244670121       -3.5040873370        0.9465908514
 H         -4.2859210102       -1.8577788310        0.4197884303
 H         -2.4517844427       -4.2009727595        1.2335478350
 O         -2.4372070734       -0.1143110092        2.4307916267
