  62
        -98.94633857
 C         -1.7873354381       -0.7439581673        0.2243039204
 C         -3.0818754141       -0.9885853050        0.7415259224
 C         -4.0013954983        0.1567507080        0.7370022484
 C         -3.5692879645        1.3453623362        0.2770057957
 C         -4.4168279064        2.5785742824        0.1631846396
 C         -5.0876738976        2.6651261709       -1.2149859451
 C         -5.7894319608        1.3761182340       -1.6428467550
 H         -6.2497486016        1.5638787878       -2.6153720083
 H         -5.0410671228        0.5935570244       -1.7883695723
 C         -6.8578576728        0.8782838080       -0.6593732780
 H         -7.1528250425        1.6883079502        0.0086728650
 H         -7.7449365412        0.5854781230       -1.2249895893
 C         -6.4389420008       -0.3361366130        0.1713195211
 H         -7.3294635728       -0.7338255888        0.6653549939
 H         -6.0557895761       -1.1176188471       -0.4898807349
 C         -5.3918382075       -0.0699429106        1.2601256555
 H         -5.7125785716        0.7682957856        1.8818865233
 H         -5.3333061340       -0.9626954909        1.8897311461
 H         -4.3227952894        2.9006871347       -1.9585990209
 H         -5.8083166946        3.4847324677       -1.1973811732
 H         -5.1723792943        2.5679279515        0.9462786475
 H         -3.7758441366        3.4509147422        0.3004470420
 O         -2.3096081014        1.5484088944       -0.1862110054
 C         -1.3907522291        0.5104576203       -0.2367647641
 O         -0.2796758128        0.8311073719       -0.6978803898
 H          1.8666656984       -1.9175088486       -0.6351228765
 C          1.7240726959       -1.6077267962        0.3860750755
 C          0.4552674842       -1.5326122361        0.9375841358
 C          0.3280166871       -1.1244045414        2.2639543403
 C          1.4392300809       -0.7886588401        3.0114624914
 C          2.7037064964       -0.8448545756        2.4499627834
 C          2.8428940526       -1.2563913841        1.1311741654
 N          4.1164537821       -1.3499332290        0.5371274171
 S          4.4413370154       -0.4850960274       -0.8599953317
 O          3.5512820342       -0.8977638471       -1.9127201913
 O          5.8532845317       -0.6948008210       -1.0979794562
 C          4.1655459414        1.2183078289       -0.4076359183
 C          5.2589548844        1.9892343997       -0.0601636470
 C          5.0573208321        3.2951641072        0.3543095938
 C          3.7687633331        3.8038415813        0.4240582036
 C          2.6835415891        3.0149685200        0.0766180258
 C          2.8763561212        1.7074237622       -0.3439126462
 H          2.0375500178        1.0870773604       -0.6181623223
 H          1.6766131336        3.3982781384        0.1275092838
 H          3.6084187419        4.8197794069        0.7494576845
 H          5.9011135676        3.9102345035        0.6228215022
 H          6.2419696167        1.5525947093       -0.1339358064
 H          4.8771616307       -1.2171968225        1.1894256354
 H          3.5743505712       -0.5771151556        3.0293698911
 H          1.3221797567       -0.4743673466        4.0375498986
 H         -0.6608709575       -1.0737886954        2.6993675466
 C         -0.7911909376       -1.8876839755        0.1667178777
 H         -1.2826370965       -2.7287889192        0.6784338038
 C         -0.5271556587       -2.2840850962       -1.2705154256
 C         -0.1202071010       -3.6877394471       -1.6012684800
 C         -1.4909764713       -3.2002741947       -1.9604418326
 H         -1.7203725350       -3.0202985117       -3.0001527372
 H         -2.3301159281       -3.5617586947       -1.3838268359
 H          0.5969586418       -3.8406895719       -2.3938639974
 H         -0.0289970734       -4.3871140409       -0.7839362463
 H         -0.0975830227       -1.4795324534       -1.8582387870
 O         -3.4477352940       -2.1086028964        1.1892295815
