  62
        -98.94327661
 C          0.0351659721       -1.9238401041       -0.2364070397
 C         -1.1437024946       -2.2967621861        0.4467825558
 C         -2.3938810131       -1.6778303512       -0.0214710902
 C         -2.3544748862       -0.8078048699       -1.0450613567
 C         -3.5061313209       -0.0939664743       -1.7072773716
 C         -4.5704348810        0.5367412762       -0.7974118554
 C         -4.0691713325        1.0311279565        0.5678255552
 H         -2.9775589195        1.0578113509        0.5993547608
 H         -4.4195649515        2.0536203615        0.7263186134
 C         -4.5746377696        0.1780676751        1.7337718490
 H         -4.5124208083        0.7700764547        2.6502070227
 H         -5.6272143834       -0.0638708075        1.5677363745
 C         -3.7929526611       -1.1114127358        1.9773524421
 H         -4.2977145047       -1.6693187444        2.7702621491
 H         -2.7925631302       -0.8636127889        2.3446433281
 C         -3.6324821123       -2.0268091017        0.7519974866
 H         -3.4871949655       -3.0489462210        1.1125704530
 H         -4.5206229779       -2.0017296253        0.1245543079
 H         -5.3770399473       -0.1771944272       -0.6341280411
 H         -5.0008354772        1.3749056876       -1.3483012389
 H         -3.9937683425       -0.7968166033       -2.3891725289
 H         -3.0417995471        0.6810875948       -2.3203577471
 O         -1.1948524522       -0.4809950947       -1.6812479021
 C          0.0246823432       -1.0043528478       -1.2845471039
 O          1.0011359242       -0.5845019326       -1.9325001783
 O         -1.1535093350       -3.1180022641        1.4049839505
 C          1.3698227848       -2.4654669118        0.2351561844
 C          2.2910741534       -1.3359473441        0.6296550184
 C          3.6741312534       -1.4183394615        0.5155766509
 C          4.4734922820       -0.3518598899        0.8889268810
 C          3.9164884757        0.8243962216        1.3574628095
 C          2.5340959132        0.9154327446        1.4758612309
 C          1.7410481648       -0.1684645308        1.1398388761
 H          0.6714529818       -0.0846807251        1.2579043710
 N          1.9158672221        2.0940068609        1.9258838886
 S          0.4685545456        2.5970769229        1.2680683956
 O          0.3585378461        3.9805758877        1.6873533759
 O         -0.6089976490        1.7379779337        1.6938515758
 C          0.6091304171        2.5611752986       -0.5113960292
 C         -0.5708996312        2.5507319489       -1.2266588369
 C         -0.5223967789        2.5935244205       -2.6094775493
 C          0.7024216325        2.6424784524       -3.2542122311
 C          1.8780902229        2.6572465337       -2.5232533306
 C          1.8356848120        2.6245308559       -1.1388528323
 H          2.7453007430        2.6287435653       -0.5613043491
 H          2.8314368104        2.6861406819       -3.0257894021
 H          0.7398902650        2.6615473803       -4.3320388994
 H         -1.4382356134        2.5800609687       -3.1792428075
 H         -1.5034999720        2.4967759105       -0.6867249805
 H          2.5358474402        2.8739136837        2.0889148054
 H          4.5397662731        1.6631853957        1.6283025798
 H          5.5460046402       -0.4311694799        0.7981079723
 H          4.1251763498       -2.3181154289        0.1301092877
 H          1.1468042240       -3.0607699645        1.1341303686
 C          1.9765316843       -3.3764947765       -0.8140597229
 C          2.7716500601       -4.5821751364       -0.4128912778
 C          1.4021359016       -4.7483522846       -0.9972484960
 H          1.3083856889       -5.1398233842       -1.9989468178
 H          0.5954289169       -5.0364827661       -0.3388436890
 H          3.6212685172       -4.8634593404       -1.0167917821
 H          2.8947044925       -4.7742773952        0.6424479021
 H          2.2763748100       -2.8360945838       -1.7048477965
