  62
        -98.94948055
 C         -0.8785712817       -1.7431419868       -0.2726597939
 C         -2.1666665355       -1.6791268312        0.3057053235
 C         -3.0297895165       -0.5941082786       -0.1730531030
 C         -2.5676904163        0.2661045853       -1.0984431352
 C         -3.3213339961        1.4352273712       -1.6731517655
 C         -3.2840175968        2.6918421191       -0.7918333986
 C         -4.1624369138        2.6386492117        0.4585170780
 H         -4.2350892861        3.6588031212        0.8411924278
 H         -5.1691857855        2.3187937578        0.1863539518
 C         -3.6134921447        1.7375000457        1.5734743768
 H         -2.5479711595        1.5569332373        1.4074827562
 H         -3.6932496104        2.2574293987        2.5315887316
 C         -4.3395028388        0.4004482566        1.7250611406
 H         -5.3647635658        0.5782385009        2.0592072409
 H         -3.8287343631       -0.1785736384        2.4988400218
 C         -4.3857223379       -0.4488361725        0.4490472186
 H         -5.0867130322       -0.0160180059       -0.2646600427
 H         -4.7336796499       -1.4492993323        0.7195546951
 H         -3.6113757200        3.5336469270       -1.4070078966
 H         -2.2520188375        2.8819914424       -0.4851355919
 H         -2.8504355175        1.6691864986       -2.6303678882
 H         -4.3582356855        1.1514923722       -1.8570199602
 O         -1.3315526335        0.1542926864       -1.6520626494
 C         -0.4501506825       -0.8351190672       -1.2416858892
 O          0.6579879007       -0.8055899396       -1.8086589787
 O         -2.5753555601       -2.4897145462        1.1824688150
 C          0.1034284685       -2.7864218773        0.2208952736
 C          1.3703922896       -2.1379292490        0.7263543163
 C          2.6003092922       -2.7865868672        0.7064973905
 C          3.7358430088       -2.1551829618        1.1828302751
 C          3.6797424911       -0.8578425723        1.6595539532
 C          2.4555526573       -0.2004713466        1.6810173369
 C          1.3140279036       -0.8530206105        1.2472258706
 H          0.3712627289       -0.3294061125        1.2936983267
 N          2.3416309367        1.1277938919        2.1305413038
 S          1.4295104374        2.2094205911        1.2421453052
 O          1.8535352051        3.5080389244        1.7291145075
 O          0.0227002686        1.9285304464        1.3864799774
 C          1.9177933681        2.0569704954       -0.4672365405
 C          3.2225499477        1.7502819084       -0.7957226877
 C          3.5793609947        1.6891314334       -2.1326448280
 C          2.6359764877        1.9449071848       -3.1144414792
 C          1.3339115425        2.2651987917       -2.7688228687
 C          0.9716317342        2.3222037993       -1.4339073680
 H         -0.0364596622        2.5489923581       -1.1257543450
 H          0.5950719977        2.4575944534       -3.5302910359
 H          2.9146814484        1.8889865600       -4.1550029036
 H          4.5917242539        1.4356054392       -2.4037370928
 H          3.9450024419        1.5537557482       -0.0208336050
 H          3.2077557233        1.5523639137        2.4298591000
 H          4.5698590041       -0.3592580778        2.0125611860
 H          4.6818127544       -2.6744415039        1.1668904093
 H          2.6681297954       -3.7885777585        0.3150613178
 H         -0.3943730287       -3.2832390949        1.0681423990
 C          0.3697294879       -3.8189434720       -0.8579381463
 C          0.5856255128       -5.2592360703       -0.5031139078
 C         -0.6903773768       -4.8333797594       -1.1625481448
 H         -0.8607137563       -5.1093904945       -2.1922456305
 H         -1.5899786005       -4.7999708089       -0.5652008374
 H          1.2928387262       -5.8325183794       -1.0835364414
 H          0.5448176929       -5.5309952670        0.5410202571
 H          0.9236181559       -3.4069341858       -1.6939995845
