  62
        -98.94361559
 C         -2.6362674002       -0.1442647100       -0.1912157396
 C         -2.1478331097       -0.9178131201        0.8911561001
 C         -1.7269164093       -2.2899570799        0.5618820797
 C         -1.7990353395       -2.7235228496       -0.7082404504
 C         -1.3682610692       -4.0808571394       -1.1832236308
 C          0.0947898807       -4.0805276588       -1.6445931612
 C          1.0649419807       -3.4535791687       -0.6422874412
 H          2.0712268407       -3.5675025283       -1.0530777915
 H          0.8739430704       -2.3795370988       -0.5746266910
 C          1.0166996413       -4.0690256491        0.7628796486
 H          0.5490882216       -5.0542497692        0.7208779385
 H          2.0407365714       -4.2083022788        1.1160918784
 C          0.3026893012       -3.2108255395        1.8093262090
 H          0.6963293409       -2.1912293894        1.7772225391
 H          0.5339995016       -3.6186019897        2.7977628188
 C         -1.2256363588       -3.1458024300        1.6910082994
 H         -1.6333556985       -4.1569437401        1.6168621792
 H         -1.6082744487       -2.6859798503        2.6071517796
 H          0.3916651210       -5.1125215387       -1.8432236115
 H          0.1631845003       -3.5182644486       -2.5787349510
 H         -1.5053211588       -4.7996989896       -0.3775114309
 H         -2.0039490093       -4.3647807394       -2.0240605307
 O         -2.2612914800       -1.9509669496       -1.7246352801
 C         -2.6668438504       -0.6494838897       -1.4937905597
 O         -3.0539801108       -0.0477074196       -2.5177923995
 H         -0.4997595404        1.0064179204        0.7752509101
 C         -0.6382026408        1.9013594405        0.1885715104
 C         -1.8921051210        2.2281281202       -0.3027095093
 C         -2.0349719616        3.4033981804       -1.0319578190
 C         -0.9431727919        4.2161655508       -1.2783560590
 C          0.3166244683        3.8567204611       -0.8337704694
 C          0.4678106989        2.6869480410       -0.0988651197
 N          1.7272856191        2.2653640413        0.3586404999
 S          2.0229887097        0.5979291814        0.2923592294
 O          1.4047998096        0.0363932614       -0.8868068005
 O          1.6626208301        0.0152826610        1.5590479294
 C          3.7987649396        0.5838406220        0.1259640990
 C          4.3616426794        0.4232685625       -1.1256452611
 C          5.7423877793        0.4456279229       -1.2475888515
 C          6.5316826595        0.6311827729       -0.1225589716
 C          5.9520415698        0.7898841925        1.1276430586
 C          4.5724918498        0.7663992520        1.2568409889
 H          4.0764403300        0.8740125116        2.2073494990
 H          6.5687396300        0.9304629825        2.0005455384
 H          7.6055808195        0.6490793633       -0.2203955119
 H          6.1952879491        0.3180789033       -2.2175408716
 H          3.7067899292        0.2741480224       -1.9693485410
 H          2.4898955289        2.7978394216       -0.0381844402
 H          1.1758320281        4.4711423214       -1.0561428695
 H         -1.0684470623        5.1253357409       -1.8464749988
 H         -3.0055300417        3.6666817901       -1.4248676487
 C         -3.0694785107        1.3081339898       -0.0700369792
 H         -3.7837172109        1.4780074998       -0.8890599190
 C         -3.7550755405        1.6516316193        1.2376748611
 C         -4.7655564308        2.7571966590        1.2700136315
 C         -5.2080963603        1.3325051088        1.4123410613
 H         -5.5435024200        0.9836513885        2.3771104613
 H         -5.7192277604        0.8710694988        0.5796626613
 H         -4.7987008308        3.3952455388        2.1395227317
 H         -4.9894570312        3.2631080991        0.3433159517
 H         -3.1131845902        1.5282460793        2.0999876809
 O         -2.0672494196       -0.5135413104        2.0819286102
