  62
        -98.94182593
 C         -2.3776705852       -1.0750579239        0.1323466929
 C         -3.6338566525       -0.9322742190        0.7799358574
 C         -4.6033116681       -0.0419423155        0.1339826089
 C         -4.2672188106        0.5953307071       -1.0016544118
 C         -5.1514843234        1.5184938603       -1.7952694886
 C         -5.1676253827        2.9641547994       -1.2801232806
 C         -5.9260665923        3.1795401059        0.0301968766
 H         -6.0438772425        4.2574225021        0.1579285321
 H         -6.9250366451        2.7508260255       -0.0553554980
 C         -5.2227877663        2.6096420607        1.2700798474
 H         -5.2421344743        3.3506755729        2.0723759349
 H         -4.1723445966        2.4190154512        1.0372339108
 C         -5.8489554261        1.3286964143        1.8215814137
 H         -5.2509213082        0.9939920008        2.6728882194
 H         -6.8583462979        1.5399242436        2.1812612256
 C         -5.9222472160        0.1755218477        0.8122849959
 H         -6.1725097140       -0.7392995615        1.3550109441
 H         -6.7009552551        0.3695431898        0.0749485717
 H         -4.1358884514        3.3050332050       -1.1651430508
 H         -5.6360403492        3.5792140647       -2.0520831433
 H         -6.1686425600        1.1258002244       -1.8128225258
 H         -4.7614848311        1.5212378010       -2.8155274614
 O         -3.0493034510        0.4486257981       -1.5843053772
 C         -2.0681344714       -0.3694062476       -1.0321429469
 O         -1.0058765064       -0.3716899807       -1.6827000802
 O         -3.9318062869       -1.5266383888        1.8493035974
 C         -1.3575265807       -1.9799859240        0.8030404360
 C         -0.0519649318       -1.2470226144        0.9695007845
 C          0.0922221188       -0.3332786107        2.0092483408
 C          1.2616858839        0.3884597773        2.1564169966
 C          2.3063207534        0.2235246219        1.2634413915
 C          2.1627096013       -0.6687165299        0.2099787052
 C          0.9977322386       -1.4138148820        0.0811112301
 H          0.8916734767       -2.0968586583       -0.7472030830
 N          3.2096030365       -0.8375044959       -0.7104930477
 S          4.0320024730        0.5112673451       -1.2741265374
 O          3.2132480145        1.7009444777       -1.2625769061
 O          4.5721222831        0.1113977001       -2.5557410689
 C          5.3769826861        0.6851710637       -0.1171038640
 C          5.6015152136        1.8984277685        0.5030870753
 C          6.6599811978        2.0127579783        1.3911131562
 C          7.4718180230        0.9174204001        1.6415631648
 C          7.2354213395       -0.2935897878        1.0081896594
 C          6.1797783282       -0.4137581475        0.1187874584
 H          5.9645990364       -1.3350241745       -0.3960286374
 H          7.8691122890       -1.1432440966        1.2052009504
 H          8.2940239052        1.0084031527        2.3336599858
 H          6.8454241673        2.9539836944        1.8831936213
 H          4.9414036836        2.7220154563        0.2809700068
 H          2.9747334536       -1.4549982889       -1.4743061252
 H          3.2146829639        0.7949594670        1.3621331622
 H          1.3613928901        1.0906539130        2.9702175490
 H         -0.7302951114       -0.1886063134        2.6962622840
 H         -1.7774479507       -2.1604661944        1.8058026434
 C         -1.1924848632       -3.3466995063        0.1549783616
 C         -2.3843142181       -4.0826041946       -0.3780906493
 C         -1.3286057268       -3.5858619431       -1.3176307760
 H         -0.6718134717       -4.3105561098       -1.7773118596
 H         -1.5548974270       -2.7430053320       -1.9516214904
 H         -2.4593585848       -5.1445885984       -0.1998489679
 H         -3.3332710884       -3.5665994251       -0.3602734252
 H         -0.4483754258       -3.9445569962        0.6728801642
