  62
        -98.93189212
 C          2.3418888398        0.1249056226        0.5247265926
 C          3.3159483535        0.7678236522       -0.2746290665
 C          4.4137669882       -0.0818541218       -0.7774755883
 C          4.4167874043       -1.3948123058       -0.4930596288
 C          5.4617057128       -2.4114370268       -0.8609031653
 C          6.4883022847       -2.5681264357        0.2739296116
 C          7.6594239554       -1.5874991708        0.2242449602
 H          8.2305389387       -1.7166341305        1.1465524999
 H          8.3155477374       -1.8543151033       -0.6069583106
 C          7.2737243435       -0.1122844066        0.0877215810
 H          6.4325534210        0.1112579604        0.7463850400
 H          8.1195790265        0.4875449437        0.4294128173
 C          6.9302403284        0.2905246209       -1.3540811826
 H          7.2504671453       -0.5016128703       -2.0307353584
 H          7.5026949724        1.1796391987       -1.6265857627
 C          5.4519703632        0.6215253757       -1.6090657833
 H          5.2809687986        1.6862812019       -1.4222195511
 H          5.2247796616        0.4513497327       -2.6668222047
 H          5.9568024133       -2.4594264475        1.2228595542
 H          6.8944879201       -3.5811281611        0.2416420067
 H          4.9393806567       -3.3615466254       -0.9910888410
 H          5.9456927171       -2.1466386866       -1.7962041187
 O          3.4405625366       -1.9819873063        0.2524665853
 C          2.3963871777       -1.2489553219        0.7778953392
 O          1.5872167743       -1.9200957529        1.4505838663
 O          3.3017735039        1.9940332834       -0.5618338748
 C          1.1602540072        0.8530589511        1.1472760729
 C          0.0615859727        1.0479440315        0.1288649489
 C          0.1910542324        1.9468684302       -0.9242242971
 C         -0.8323340020        2.0998236605       -1.8419515413
 C         -2.0001486022        1.3660385557       -1.7314829894
 C         -2.1391765942        0.4647417509       -0.6847015172
 C         -1.1121231464        0.3159523552        0.2392390466
 H         -1.2164562405       -0.3961120866        1.0474183117
 N         -3.3148313719       -0.3002120162       -0.5760892116
 S         -4.7797663364        0.5027291074       -0.8339155017
 O         -5.0242517520        0.5586633897       -2.2535057018
 O         -4.7754690188        1.7729892637       -0.1438449105
 C         -5.9323629193       -0.6182642104       -0.0665015844
 C         -6.3696038085       -1.7176248110       -0.7807463130
 C         -7.2504882289       -2.6005159333       -0.1767035332
 C         -7.6765105171       -2.3711618563        1.1232620563
 C         -7.2295959112       -1.2628371304        1.8268351406
 C         -6.3475888485       -0.3763125667        1.2292396190
 H         -5.9821499568        0.5034578115        1.7344298183
 H         -7.5649972344       -1.0856389525        2.8360436016
 H         -8.3637258458       -3.0588326293        1.5903140344
 H         -7.6025106349       -3.4620746070       -0.7207650542
 H         -6.0198126158       -1.8498963523       -1.7912600323
 H         -3.3381111700       -0.8451055085        0.2750166446
 H         -2.8064445479        1.4829132303       -2.4378485256
 H         -0.7202573432        2.8003846209       -2.6560837649
 H          1.1066339639        2.5076989709       -1.0283970377
 H          0.7768697182        0.1751628845        1.9218583136
 C          1.5441573215        2.1610181848        1.8104979573
 C          0.6241239071        2.7466639081        2.8372930331
 C          1.9381912221        2.1594869808        3.2554606331
 H          2.7245146795        2.8264950098        3.5752911291
 H          1.9315242001        1.2121205237        3.7752200853
 H          0.5047029140        3.8186605581        2.8697352894
 H         -0.2755307788        2.1981323621        3.0732801869
 H          2.0676946308        2.8429803213        1.1546597800
