  62
        -98.94671621
 C          2.2165354971        0.3209802203       -0.0537317053
 C          2.0350148211        1.4255704091       -0.9262086807
 C          1.2905432577        2.5708202881       -0.3868140294
 C          0.8566712250        2.5324630348        0.8852416908
 C          0.0463155454        3.6036983864        1.5538699119
 C         -1.4588224186        3.3351941655        1.4185408116
 C         -1.9107402816        3.0187621595       -0.0073250953
 H         -2.9971594605        2.9020348582        0.0144298868
 H         -1.5016600072        2.0546021237       -0.3199798986
 C         -1.5334529215        4.0821046506       -1.0483853802
 H         -1.3051940920        5.0268014059       -0.5524969212
 H         -2.3953476265        4.2534377640       -1.6966982411
 C         -0.3679996514        3.6882862685       -1.9586679310
 H         -0.3511514474        4.3761144669       -2.8088217963
 H         -0.5441602913        2.6832249584       -2.3536987502
 C          1.0242247259        3.7222012123       -1.3133686598
 H          1.1709191119        4.6761987088       -0.8020960389
 H          1.7652763978        3.6432279021       -2.1143562185
 H         -1.9972445977        4.2122690500        1.7823784037
 H         -1.7216621429        2.4850872560        2.0520424752
 H          0.2956484177        4.5669482704        1.1131781295
 H          0.3077891888        3.6203902539        2.6133441663
 O          1.0799684363        1.4764932605        1.7047646766
 C          1.7026553257        0.3204674996        1.2440914423
 O          1.7272898625       -0.5965953619        2.0845628773
 O          2.4700421904        1.4462328340       -2.1093126434
 C          2.8231732747       -0.9429419869       -0.6431056953
 C          1.8210963250       -2.0572877945       -0.4701411223
 C          2.0373731610       -3.1959863800        0.2928732641
 C          1.0281519493       -4.1318961037        0.4438588033
 C         -0.2112479078       -3.9444274078       -0.1406791302
 C         -0.4374599407       -2.8076446305       -0.9101766683
 C          0.5858860332       -1.8907563751       -1.0862129762
 H          0.4085496508       -1.0107682811       -1.6882334828
 N         -1.6833460045       -2.5858499435       -1.5257383541
 S         -2.4596473153       -1.1090623455       -1.4214476726
 O         -3.7333480883       -1.3249655056       -2.0715934292
 O         -1.6285355560       -0.0697362362       -1.9715059144
 C         -2.7267507970       -0.8270344623        0.3179606250
 C         -1.6434755244       -0.4908262550        1.1032664558
 C         -1.8279609776       -0.3033795853        2.4633278267
 C         -3.0930074702       -0.4477805015        3.0122606260
 C         -4.1738011833       -0.7832234845        2.2100928279
 C         -3.9915010169       -0.9816015918        0.8507780857
 H         -4.8014740480       -1.2437756058        0.1895452921
 H         -5.1559935177       -0.8933292128        2.6408051795
 H         -3.2342690618       -0.2972005514        4.0709565992
 H         -0.9728173257       -0.0537993579        3.0726940147
 H         -0.6703510796       -0.3822385659        0.6513157384
 H         -2.3499716663       -3.3321812204       -1.3881765794
 H         -1.0001762355       -4.6682979951       -0.0033682167
 H          1.2038685191       -5.0127826713        1.0423518613
 H          2.9847245861       -3.3366924036        0.7866398115
 H          2.8934371937       -0.7228472287       -1.7220869738
 C          4.2304527948       -1.2910008341       -0.1903348911
 C          5.1942994169       -0.2125610439        0.2040176595
 C          4.6979723370       -1.1855253397        1.2289805029
 H          5.3856792640       -1.9361250306        1.5911053859
 H          3.9925788119       -0.8449884472        1.9688109229
 H          6.2182806375       -0.2872872924       -0.1301277874
 H          4.8176771665        0.7998651515        0.2376370840
 H          4.6416055337       -2.1103413596       -0.7731700937
