  62
        -98.93736821
 C         -2.2855928351        0.6815446265       -0.1341509498
 C         -3.5430785436        1.0362325633       -0.6870896469
 C         -4.7266217316        0.5919746082        0.0563638760
 C         -4.5731148358       -0.1141181552        1.1908839764
 C         -5.6796308111       -0.6161844441        2.0784177098
 C         -6.2883728713       -1.9499671330        1.6242056453
 C         -7.1676858341       -1.8721011237        0.3755015090
 H         -7.6982022276       -2.8231594452        0.2979511806
 H         -7.9171240318       -1.0912369740        0.5082273985
 C         -6.3950717077       -1.6307658676       -0.9288868286
 H         -6.7551095704       -2.3173038076       -1.6984667605
 H         -5.3370444711       -1.8534428169       -0.7717575898
 C         -6.5245256978       -0.2143039361       -1.4892319755
 H         -5.9087335070       -0.1438443992       -2.3894999662
 H         -7.5616959994       -0.0263070267       -1.7752921999
 C         -6.0765355110        0.8902128959       -0.5230798431
 H         -5.9993558291        1.8254810548       -1.0829723689
 H         -6.8118546143        1.0169927326        0.2711731473
 H         -6.8977848542       -2.3267889367        2.4488338511
 H         -5.4784147192       -2.6635130140        1.4561281803
 H         -5.2424917243       -0.7572021777        3.0692488355
 H         -6.4636510003        0.1384037834        2.1481636509
 O         -3.3510969058       -0.4479552694        1.6821166311
 C         -2.1789307798       -0.0864761687        1.0264539960
 O         -1.1474281783       -0.5093197042        1.5801044462
 H          1.5195191289        0.8291661696        0.1310194836
 C          1.1911351275       -0.0110773426       -0.4575490529
 C         -0.0731562358       -0.0296501641       -1.0223201257
 C         -0.4631863528       -1.1537226092       -1.7469108089
 C          0.3899326382       -2.2289174848       -1.8978685443
 C          1.6593153528       -2.1988183197       -1.3472260713
 C          2.0559650564       -1.0849125240       -0.6180630687
 N          3.3269801995       -1.0309664113       -0.0246666440
 S          4.1216882279        0.4556965699        0.0307701130
 O          3.7046116343        1.1758836836        1.2072816564
 O          3.9634944026        1.1472445510       -1.2294673639
 C          5.8094012973       -0.0872937996        0.2288799121
 C          6.2504432962       -0.4331271187        1.4924469639
 C          7.5518339478       -0.8833432773        1.6477324773
 C          8.3857048616       -0.9808100308        0.5435011535
 C          7.9295410911       -0.6288698414       -0.7179266439
 C          6.6286523372       -0.1788281527       -0.8805845530
 H          6.2334289461        0.1141405729       -1.8399724200
 H          8.5811951643       -0.7026676146       -1.5735939906
 H          9.3984876198       -1.3302835729        0.6675914707
 H          7.9106936327       -1.1547428922        2.6274384112
 H          5.5689698099       -0.3321833831        2.3212072728
 H          3.9385659329       -1.7769079117       -0.3259087302
 H          2.3301041372       -3.0358572714       -1.4690185806
 H          0.0698097795       -3.0950727293       -2.4575902886
 H         -1.4525392098       -1.1735757896       -2.1845369437
 C         -1.0424023766        1.1169861237       -0.8878225330
 H         -1.4092187992        1.3671022317       -1.8983837567
 C         -0.3932604018        2.3798542633       -0.3423843964
 C         -1.2088598737        3.4509269919        0.3158033033
 C         -0.2454907262        2.6385481396        1.1256682319
 H          0.6666598311        3.1041627163        1.4710637640
 H         -0.6358662580        1.8977628465        1.8059717942
 H         -2.2653771340        3.2658459470        0.4448107753
 H         -0.9665556392        4.4819734287        0.1066712026
 H          0.4237238852        2.7174147978       -0.9749544866
 O         -3.6693346043        1.6921541466       -1.7552744344
