  62
        -98.93580171
 C          1.9136115878        1.2448502061       -0.0017993570
 C          2.3835890002        0.0651789908       -0.6222915250
 C          3.7757515831       -0.3288512092       -0.3237039720
 C          4.5002790305        0.4146725666        0.5309711654
 C          5.9238092179        0.2167506703        0.9867913481
 C          6.3364789666       -1.2167872444        1.3548177444
 C          7.3058132958       -1.8463778859        0.3529567163
 H          8.0219600897       -1.0849886962        0.0368611214
 H          7.8695869002       -2.6331407672        0.8592206326
 C          6.6520921338       -2.4678488940       -0.8801039053
 H          6.1365251202       -3.3864641482       -0.5913451694
 H          7.4503935737       -2.7476212836       -1.5716543754
 C          5.6574946616       -1.5688055637       -1.6173592751
 H          5.5792959321       -1.9314076616       -2.6446166466
 H          6.0315140301       -0.5469583718       -1.6689470895
 C          4.2470967275       -1.5826224774       -1.0088892373
 H          3.5089738662       -1.7600974326       -1.7974201228
 H          4.1478895674       -2.4219954547       -0.3142837325
 H          5.4509659666       -1.8402983917        1.4688999907
 H          6.8328112662       -1.1813567092        2.3259997175
 H          6.0352035928        0.8692318330        1.8557669855
 H          6.5926731710        0.6084598038        0.2164383561
 O          3.9994631036        1.5398278659        1.1171265751
 C          2.7134064121        1.9793982116        0.8758754576
 O          2.4007838113        3.0188496053        1.4896236732
 O          1.6884295218       -0.6366028720       -1.4040416976
 C          0.4963569353        1.7509171625       -0.2199414297
 C         -0.4631234892        0.7986017076        0.4506718132
 C         -0.6916692547        0.9132040052        1.8188778933
 C         -1.5481247370        0.0434777041        2.4681647472
 C         -2.1934501458       -0.9599735452        1.7664902467
 C         -1.9647742610       -1.0862023408        0.4031390812
 C         -1.1131711050       -0.2052924369       -0.2498754207
 H         -0.9330383592       -0.3243833369       -1.3062172412
 N         -2.6338338615       -2.0952329819       -0.3158675378
 S         -4.3019120797       -2.1160572474       -0.1654213120
 O         -4.6688158616       -2.7960949636        1.0516800408
 O         -4.7960984943       -2.7043326561       -1.3904833412
 C         -4.7568881044       -0.3936061609       -0.0581145824
 C         -5.2828546638        0.1093192898        1.1139607222
 C         -5.5647015971        1.4637438004        1.1947639556
 C         -5.3102092210        2.2880277551        0.1099844264
 C         -4.7838608727        1.7669487565       -1.0622279874
 C         -4.5018874215        0.4138037130       -1.1490854605
 H         -4.0965669111       -0.0238431736       -2.0471625809
 H         -4.5869474047        2.4104633862       -1.9046770212
 H         -5.5229535568        3.3433607977        0.1768691735
 H         -5.9755594224        1.8718227558        2.1040935378
 H         -5.4606097241       -0.5659554840        1.9347955364
 H         -2.3557642920       -2.1473276585       -1.2851543006
 H         -2.8655575476       -1.6488654878        2.2523475620
 H         -1.7164572032        0.1467760449        3.5292829456
 H         -0.1799518755        1.6916155720        2.3678191983
 H          0.4405691828        2.7113464271        0.3091505726
 C          0.1891651533        1.9828842385       -1.6853072682
 C         -1.0632793012        2.7169220847       -2.0579981203
 C          0.2726092891        3.3704480879       -2.2424648328
 H          0.6506544876        3.5000179679       -3.2456173095
 H          0.5520821020        4.1649167579       -1.5660644552
 H         -1.6039431953        2.3998679525       -2.9366767602
 H         -1.6926271429        3.0634699545       -1.2523089616
 H          0.5126301252        1.1727620590       -2.3265953369
