  62
        -98.93129111
 C         -1.1301820186       -1.4823455619        0.8240655048
 C         -2.0905753904       -1.3344213047       -0.2045535436
 C         -3.1305631669       -0.3124879778        0.0184942670
 C         -3.0978734857        0.4222942159        1.1433999477
 C         -3.9824995343        1.5828477040        1.5046612514
 C         -3.3284400347        2.9036833761        1.0604923375
 C         -3.6681368891        3.3404608058       -0.3632193977
 H         -4.7178671249        3.6397733269       -0.4104698782
 H         -3.0609372831        4.2220080548       -0.5821154425
 C         -3.4031700575        2.2867402508       -1.4415151591
 H         -2.4441020655        1.8025865805       -1.2430560916
 H         -3.3071327491        2.8038869521       -2.3986463626
 C         -4.5218497254        1.2397267179       -1.5512317242
 H         -4.8297098639        1.1510082161       -2.5951748931
 H         -5.3931820524        1.5948297352       -1.0006431409
 C         -4.1519013192       -0.1737219094       -1.0770686229
 H         -5.0645986336       -0.6961024386       -0.7711495707
 H         -3.7314488052       -0.7383474758       -1.9153198433
 H         -3.6374501974        3.6982166267        1.7433159656
 H         -2.2433367519        2.7954065751        1.1506673072
 H         -4.9717693539        1.4679526937        1.0713761766
 H         -4.0707358184        1.5849367912        2.5931197776
 O         -2.1624544865        0.2368190106        2.1149705655
 C         -1.1441485987       -0.6854688320        1.9660658934
 O         -0.3198266676       -0.7025293524        2.9055087896
 O         -2.0691314764       -2.0009339620       -1.2702901213
 C          0.0368759162       -2.4434141664        0.6379710129
 C          0.8033726396       -2.0286872942       -0.6018401701
 C          1.4345192067       -2.8507706236       -1.5275602530
 C          2.1242384843       -2.3077353234       -2.6009169675
 C          2.2294012634       -0.9415809109       -2.7775990500
 C          1.6196909368       -0.1046741778       -1.8501663570
 C          0.9316052539       -0.6545184311       -0.7844287556
 H          0.4518137980        0.0162611073       -0.0909823642
 N          1.6760790846        1.2911469712       -1.9692336712
 S          1.6714374206        2.2616855048       -0.6092118883
 O          0.3715103033        2.2689490494        0.0131344718
 O          2.1435508995        3.5419106004       -1.0935874455
 C          2.9058250913        1.5417253891        0.4590512905
 C          4.2222171701        1.6515534974        0.0509409783
 C          5.2170964563        1.0678938208        0.8164470796
 C          4.8808684401        0.3797636846        1.9729966767
 C          3.5576810077        0.2830510172        2.3722547586
 C          2.5567900949        0.8689097969        1.6114374207
 H          1.5215742155        0.7991813072        1.9089616798
 H          3.2852340579       -0.2489960281        3.2699698372
 H          5.6527862115       -0.0813658116        2.5685923828
 H          6.2475943253        1.1473840284        0.5099906897
 H          4.4425210118        2.2054834633       -0.8471377005
 H          2.2880240243        1.6426135927       -2.6897810117
 H          2.7628762059       -0.5277426798       -3.6190502541
 H          2.5929059648       -2.9701601760       -3.3129029711
 H          1.3956025081       -3.9212506441       -1.4425646905
 H          0.7094466742       -2.2525023583        1.4928326175
 C         -0.4883601403       -3.8621569103        0.8114051838
 C         -0.8582630611       -4.7987449814       -0.2940946594
 C          0.3030156490       -5.1193751706        0.6002083379
 H          0.1760876004       -5.9117131364        1.3235505397
 H          1.3080401034       -5.0476767887        0.2188066308
 H         -1.7666203091       -5.3723088942       -0.1805124396
 H         -0.6874630060       -4.4734902333       -1.3067422224
 H         -1.1491780095       -3.8815134221        1.6763273435
