  62
        -98.94032683
 C         -2.6279968567       -1.3183845623       -0.0948492154
 C         -2.4472821263       -0.1578784883       -0.8848231963
 C         -3.6493882963        0.6607166448       -1.1006459365
 C         -4.8217275964        0.2651431921       -0.5716622007
 C         -6.1095830266        1.0293804746       -0.6701058147
 C         -6.2816067912        1.9815607431        0.5215950831
 C         -5.0540223548        2.8487598592        0.8013717684
 H         -5.3012021454        3.5015445180        1.6414210963
 H         -4.2292468334        2.2091879270        1.1248498171
 C         -4.5941722422        3.7010330737       -0.3896599614
 H         -5.4000966371        3.7827670568       -1.1198823318
 H         -4.3748920166        4.7099417923       -0.0339030372
 C         -3.3304834589        3.1911119048       -1.0853973017
 H         -2.9739812100        3.9749040912       -1.7592953140
 H         -2.5457381753        3.0189029631       -0.3435398454
 C         -3.4955631732        1.9128029115       -1.9172091718
 H         -4.3323500779        2.0292213479       -2.6089555096
 H         -2.5806823840        1.7782254968       -2.5017456133
 H         -7.1449332588        2.6214835300        0.3307717960
 H         -6.4899585995        1.3861526266        1.4134961743
 H         -6.1229141561        1.5905809112       -1.6022450616
 H         -6.9339242331        0.3143531235       -0.6741472807
 O         -4.9586871724       -0.8672104821        0.1645428931
 C         -3.8673794705       -1.6754773482        0.4361560697
 O         -4.1243650883       -2.6670152094        1.1484577638
 O         -1.3427615300        0.1772662605       -1.3885493240
 C         -1.4437794190       -2.2180341857        0.2130208783
 C         -0.3820896419       -1.4178974307        0.9285543510
 C         -0.7347721408       -0.7408144431        2.0936447262
 C          0.1918766108        0.0236149604        2.7748288371
 C          1.4934169495        0.1271157717        2.3143342765
 C          1.8563477883       -0.5444285538        1.1559970209
 C          0.9211535163       -1.3148355184        0.4727481057
 H          1.2166702686       -1.8250634911       -0.4305065128
 N          3.1822278368       -0.4751866474        0.6895954742
 S          3.9825065721        1.0103366480        0.7621123574
 O          4.4162965393        1.2294796911        2.1196472097
 O          3.1669540110        2.0547494072        0.1838288081
 C          5.3928787514        0.6697019093       -0.2725414821
 C          6.5110786540        0.0873994724        0.2932922762
 C          7.5965504997       -0.2044419425       -0.5172776148
 C          7.5454617892        0.0877074323       -1.8721563126
 C          6.4165004674        0.6731599112       -2.4255414447
 C          5.3269245605        0.9668165855       -1.6207124932
 H          4.4326749249        1.4302875752       -2.0066216738
 H          6.3805652654        0.9016579586       -3.4786400800
 H          8.3916701099       -0.1393408518       -2.5011731455
 H          8.4770579474       -0.6573957968       -0.0910379416
 H          6.5077197744       -0.1134062166        1.3517928877
 H          3.2774752428       -0.8824222275       -0.2311577510
 H          2.2232580946        0.7289468521        2.8310317596
 H         -0.0989289255        0.5479521255        3.6732311654
 H         -1.7529285788       -0.8169622206        2.4524430575
 H         -1.8166976520       -2.9840556134        0.9079907316
 C         -0.9606223598       -2.8998742859       -1.0494922580
 C         -0.2281394843       -4.2045427344       -0.9663232483
 C         -1.6319264499       -4.1648502976       -1.4891697720
 H         -1.7956327316       -4.3210595149       -2.5448729256
 H         -2.4253385609       -4.5476917131       -0.8638413512
 H          0.5718835514       -4.3941199189       -1.6659960198
 H         -0.0649502416       -4.6229113107        0.0152635512
 H         -0.6722448169       -2.1949376071       -1.8208446643
