  62
        -98.94484415
 C         -1.9229108212       -0.3042502784       -0.7313310859
 C         -2.9500537990       -1.2254028176       -0.4144925103
 C         -4.3106178554       -0.6786789401       -0.3811315805
 C         -4.5141307592        0.6210306780       -0.6637781671
 C         -5.8455217718        1.3218005938       -0.6894101271
 C         -6.3266699364        1.7978082080        0.6883216313
 C         -6.8016304497        0.6910151644        1.6307428551
 H         -7.3096901988        1.1780576607        2.4654764760
 H         -7.5382216317        0.0709213190        1.1188982953
 C         -5.6770358445       -0.1938502074        2.1863617033
 H         -5.8160220079       -0.3267852022        3.2616544717
 H         -4.7169763070        0.3088294458        2.0475748782
 C         -5.6012378392       -1.5878736059        1.5634624001
 H         -4.7492039997       -2.1136284213        2.0017964822
 H         -6.5054537328       -2.1489245275        1.8094661439
 C         -5.4249168426       -1.5890269433        0.0393075000
 H         -5.1628711517       -2.6022125346       -0.2750489448
 H         -6.3563227050       -1.3014683558       -0.4476731203
 H         -5.5201780437        2.3608244317        1.1639303874
 H         -7.1588417225        2.4859216228        0.5224864991
 H         -6.5964985259        0.6671657509       -1.1325683240
 H         -5.7235012754        2.1963272937       -1.3321189671
 O         -3.5013519857        1.4693016171       -0.9862691224
 C         -2.1821221682        1.0375497580       -1.0097103432
 O         -1.3573057509        1.9274797997       -1.2913293732
 O         -2.7384402625       -2.4431029625       -0.1693191244
 C         -0.4864408940       -0.7951790063       -0.7662164960
 C          0.3446511672       -0.0143663366        0.2208171521
 C         -0.0873345617        0.0578453323        1.5438604569
 C          0.6183154609        0.7860186103        2.4803849764
 C          1.7810956818        1.4467982744        2.1225215422
 C          2.2274088753        1.3734582551        0.8096223780
 C          1.5135460791        0.6407288031       -0.1309017026
 H          1.8765010324        0.6188170434       -1.1441936019
 N          3.3990549229        2.0416529963        0.4176196992
 S          4.5379224927        1.2541469888       -0.5186200501
 O          5.7392593856        2.0457179093       -0.3697319232
 O          4.0536921492        1.0794519407       -1.8634366439
 C          4.7462129535       -0.3256329277        0.2819674259
 C          4.0858460513       -1.4343703274       -0.2060270509
 C          4.2043195675       -2.6362580012        0.4742708771
 C          4.9753571497       -2.7077512838        1.6239142228
 C          5.6371177997       -1.5852307949        2.0985804297
 C          5.5193241796       -0.3803469861        1.4256026633
 H          6.0255281505        0.5123548824        1.7555739625
 H          6.2400231977       -1.6455305838        2.9902983249
 H          5.0627294911       -3.6448720205        2.1507286724
 H          3.6921682390       -3.5106027976        0.1051613205
 H          3.4992372844       -1.3402934480       -1.1047255440
 H          3.8451923564        2.5650865239        1.1567085988
 H          2.3305833982        2.0245891952        2.8501035544
 H          0.2640293362        0.8397907959        3.4987518886
 H         -0.9962511538       -0.4577582684        1.8228394934
 H         -0.5308430786       -1.8417724730       -0.4296246941
 C          0.0495841911       -0.7630985848       -2.1811598700
 C          1.0905264893       -1.7493543311       -2.6159441547
 C         -0.3144841124       -1.8699743703       -3.1231283138
 H         -0.5176018340       -1.6226002672       -4.1542752382
 H         -0.9306490067       -2.6681496166       -2.7355582626
 H          1.8609229194       -1.4189572399       -3.2973402036
 H          1.4202246605       -2.4763054759       -1.8888632260
 H          0.0934598381        0.2402160974       -2.5910154433
