  62
        -98.94474210
 C         -2.0142045398       -1.1700724192       -0.2525999702
 C         -3.1076645196       -1.1738047500        0.6551203800
 C         -4.3184966697       -0.4697765296        0.2230655308
 C         -4.3544711199        0.1061541616       -0.9918168686
 C         -5.5226845600        0.8391810721       -1.5927348178
 C         -5.6209404599        2.3102777517       -1.1661982864
 C         -6.0706642397        2.5400242904        0.2772493639
 H         -6.3057317096        3.6018720803        0.3739989849
 H         -6.9907946696        1.9849985402        0.4626577035
 C         -5.0212273895        2.1692177494        1.3346768634
 H         -4.9550691294        2.9675250087        2.0773827541
 H         -4.0386184896        2.0920986798        0.8628357132
 C         -5.3112797694        0.8717256087        2.0896163022
 H         -4.4866553793        0.6888098981        2.7833239119
 H         -6.2257879793        0.9859292682        2.6758060325
 C         -5.4576904595       -0.3633135105        1.1910015211
 H         -5.4402932695       -1.2529391810        1.8251760703
 H         -6.4080886996       -0.3309921100        0.6586837813
 H         -6.3409200100        2.7946873324       -1.8299080758
 H         -4.6503696699        2.7861994919       -1.3254274261
 H         -5.3891425101        0.8030946731       -2.6761310878
 H         -6.4490548699        0.3230263919       -1.3392313081
 O         -3.2989760800        0.0668994323       -1.8443464188
 C         -2.1003002000       -0.5389955480       -1.4933859996
 O         -1.2248130501       -0.4386379072       -2.3780954996
 H          0.4963872901        0.1268338316       -1.1108645794
 C          0.8160091803        0.0658953706       -0.0811690895
 C          0.2648315304       -0.9027710501        0.7458658497
 C          0.6822659506       -0.9621093913        2.0701846196
 C          1.6193333107       -0.0661706518        2.5556493303
 C          2.1588176506        0.9046591190        1.7315767211
 C          1.7485139504        0.9703577402        0.4056749712
 N          2.2905588002        1.9511327510       -0.4427239580
 S          3.9502318002        2.1603502209       -0.4181171080
 O          4.3133967304        3.0017176999        0.6956057327
 O          4.2944406000        2.6678518121       -1.7276663376
 C          4.6215183603        0.5242948507       -0.1800935897
 C          4.3290209601       -0.4413321484       -1.1229564305
 C          4.8117769901       -1.7262087286       -0.9372578418
 C          5.5733701703       -2.0229830197        0.1828132878
 C          5.8616927304       -1.0413871705        1.1178558287
 C          5.3804597704        0.2456880796        0.9381007200
 H          5.5775147605        1.0383177090        1.6413602307
 H          6.4553478106       -1.2743638513        1.9870138384
 H          5.9438104903       -3.0257710298        0.3255567368
 H          4.5886317600       -2.4903621279       -1.6644181925
 H          3.7359332600       -0.1793466676       -1.9848026802
 H          1.9369780701        1.9063964618       -1.3872611380
 H          2.8799493206        1.6189649486        2.0946465016
 H          1.9311382308       -0.1219094728        3.5872622202
 H          0.2548935807       -1.7076077219        2.7244981990
 C         -0.7525594597       -1.8812649296        0.2083023089
 H         -1.0753048496       -2.5172376004        1.0433886484
 C         -0.1330250799       -2.7662779586       -0.8562982020
 C          0.7943787602       -3.8655895490       -0.4368938831
 C         -0.5684179299       -4.1953650685       -0.9661130632
 H         -0.6517766501       -4.6334888276       -1.9494269636
 H         -1.3167171398       -4.5447968392       -0.2696937234
 H          0.9723713703       -3.9936301500        0.6197941067
 H          1.6508216901       -4.0799906885       -1.0569016935
 H          0.0872216700       -2.2428033678       -1.7772826415
 O         -3.0724938595       -1.7497561510        1.7745403294
