  62
        -98.94224780
 C          1.1903881294        0.9920491705        0.4637661103
 C          2.0491251997        0.7466947410       -0.6316558996
 C          3.0018078001       -0.3689235886       -0.4830457996
 C          2.9860249403       -1.1096644687        0.6406685204
 C          3.7826083308       -2.3348040183        1.0392544304
 C          5.0379197611       -2.7371722078        0.2697811006
 C          6.2093166106       -1.7648330173        0.4035260307
 H          6.5833744406       -1.8112810571        1.4293360408
 H          7.0095143609       -2.1028790069       -0.2584208992
 C          5.8910774200       -0.3043138274        0.0937435407
 H          5.1656118898        0.0740083823        0.8167058707
 H          6.8099724798        0.2730381830        0.2264374809
 C          5.3720088901       -0.0338438376       -1.3171054693
 H          5.3465179696        1.0501778424       -1.4557884193
 H          6.0665337103       -0.4484224672       -2.0502364692
 C          3.9618618903       -0.5707363882       -1.6198612395
 H          3.5569416602       -0.0042032183       -2.4637999195
 H          3.9896293408       -1.6170510382       -1.9160960795
 H          4.7991226713       -2.9063294678       -0.7761582295
 H          5.3577954415       -3.6990818376        0.6799522406
 H          4.0394235106       -2.1933765783        2.0941556505
 H          3.0714551112       -3.1684880387        1.0044033303
 O          2.1123402701       -0.8548385691        1.6587578003
 C          1.1946363697        0.1770448305        1.5931088602
 O          0.4466287295        0.2653962701        2.5893526902
 H         -0.7719077499       -0.3002652503       -0.3189463100
 C         -1.2337795802        0.4819853895       -0.9006521600
 C         -0.8479706708        1.8002505697       -0.7042758099
 C         -1.4332452111        2.7838672795       -1.4920042400
 C         -2.3693853409        2.4428298291       -2.4532963001
 C         -2.7599021503        1.1282107789       -2.6351201102
 C         -2.1826077499        0.1377270291       -1.8488453301
 N         -2.5406743993       -1.2112373110       -1.9905517202
 S         -2.5991595790       -2.1999533011       -0.6431922103
 O         -1.2683129390       -2.5351471905       -0.2004895701
 O         -3.4209571685       -3.3158519514       -1.0623924304
 C         -3.4722819396       -1.2432601415        0.5837750397
 C         -2.8111955500       -0.6778105312        1.6543605998
 C         -3.5302853304        0.1044455784        2.5456201097
 C         -4.8878934205        0.3056129278        2.3556273596
 C         -5.5404931801       -0.2783904224        1.2799411895
 C         -4.8275282297       -1.0565141421        0.3839438695
 H         -5.2993571094       -1.5377840923       -0.4572240205
 H         -6.5982463101       -0.1271407329        1.1371958094
 H         -5.4392714908        0.9177989676        3.0516619695
 H         -3.0120613807        0.5522051586        3.3788410698
 H         -1.7533275699       -0.8419523908        1.7904299199
 H         -3.3050531692       -1.3888036213       -2.6250891903
 H         -3.4937448501        0.8671724986       -3.3818443202
 H         -2.8090689611        3.2150963089       -3.0658315501
 H         -1.1511444916        3.8153252096       -1.3584042699
 C          0.1519314490        2.0950654801        0.3897597002
 H         -0.3904713211        2.0620766398        1.3473190501
 C          0.8129327684        3.4510206604        0.2519844303
 C          0.1778162978        4.6674279601        0.8541485803
 C          1.4149338680        4.0866767206        1.4680736104
 H          2.3469984978        4.6212604110        1.3632604205
 H          1.3219167081        3.5527363505        2.4030188304
 H          0.2627421274        5.6067235401        0.3286922303
 H         -0.7552838322        4.5370327497        1.3811300402
 H          1.3460846084        3.5593426806       -0.6851481196
 O          2.0197421695        1.4183761910       -1.6962570096
