  62
        -98.93947311
 C         -2.5682495428       -0.8827897357       -0.3419711613
 C         -2.7239093553        0.4466620394        0.1190062141
 C         -4.0479622825        0.7790516785        0.6599835266
 C         -5.0032975342       -0.1662621063        0.7224590160
 C         -6.3925672252        0.0134210124        1.2720105665
 C         -7.3901212614        0.6049311783        0.2666212630
 C         -7.1986679916        2.0902974978       -0.0423039603
 H         -8.0869012609        2.4215928131       -0.5839397556
 H         -7.1586901629        2.6519205653        0.8915185758
 C         -5.9578671181        2.4063840729       -0.8890267180
 H         -6.2292491002        3.1008976249       -1.6872846387
 H         -5.6011704451        1.4917008983       -1.3681201655
 C         -4.8038247241        3.0390044185       -0.1111030344
 H         -5.1078264512        4.0187734370        0.2639324024
 H         -3.9669930319        3.1860571022       -0.7984694629
 C         -4.3026084980        2.1979887944        1.0703678507
 H         -3.3541418223        2.6180423919        1.4143015734
 H         -5.0195131744        2.2355362133        1.8902953323
 H         -8.3909626472        0.4683722951        0.6826999192
 H         -7.3343499237        0.0293832713       -0.6602390488
 H         -6.3557532193        0.6413965051        2.1626153979
 H         -6.7430985546       -0.9797951909        1.5609759298
 O         -4.8014254388       -1.4424311311        0.2971770967
 C         -3.5914280349       -1.8263064451       -0.2580832771
 O         -3.5487589740       -3.0185959230       -0.6255386902
 O         -1.8098162115        1.3104973669        0.0820318065
 C         -1.2444001879       -1.3249763408       -0.9384557273
 C         -0.1388043445       -1.1434810393        0.0740118914
 C         -0.3143973540       -1.6612795989        1.3547927224
 C          0.6694035225       -1.5237483866        2.3144134647
 C          1.8518174098       -0.8672240355        2.0204836238
 C          2.0436642339       -0.3591783755        0.7437957660
 C          1.0555959015       -0.5080732276       -0.2236139981
 H          1.2204707587       -0.1078471080       -1.2118427051
 N          3.2345566684        0.3218330713        0.4375407972
 S          4.6806932125       -0.3134115917        1.0341553033
 O          4.7258148470       -1.7408946262        0.8076909598
 O          4.8403063828        0.1113744444        2.4024080015
 C          5.8682923276        0.5203234328       -0.0003117981
 C          6.3520052319       -0.1196507259       -1.1257225280
 C          7.2566798372        0.5457309484       -1.9380607723
 C          7.6575169493        1.8333428794       -1.6146704849
 C          7.1627671896        2.4626162201       -0.4818777477
 C          6.2589987939        1.8027529668        0.3354953850
 H          5.8553602238        2.2482477060        1.2296722587
 H          7.4786008746        3.4628661562       -0.2329400826
 H          8.3621787983        2.3485366772       -2.2481918192
 H          7.6452863084        0.0583194832       -2.8177045709
 H          6.0200899188       -1.1243600192       -1.3332925136
 H          3.3062774202        0.5459784865       -0.5454801538
 H          2.6270026223       -0.7502359626        2.7606328366
 H          0.5156333458       -1.9285481679        3.3038731452
 H         -1.2387344059       -2.1731280414        1.5883567671
 H         -1.3451472127       -2.4019114783       -1.1385876928
 C         -1.0012161452       -0.6056364091       -2.2489401396
 C         -0.1726810362       -1.2454420976       -3.3212706055
 C         -1.6570238422       -1.1276224395       -3.4905385610
 H         -2.0410952355       -0.4185856585       -4.2084978293
 H         -2.2580235953       -2.0204035875       -3.3947193958
 H          0.4604673673       -0.6169594617       -3.9295401281
 H          0.2376548519       -2.2234537916       -3.1193874864
 H         -0.9452333336        0.4701744660       -2.1278863684
