  62
        -98.94053870
 C         -1.5570608098       -1.3844864793        0.2990737398
 C         -1.5657704498       -0.1723118596        1.0375298403
 C         -2.2964991599        0.9545330606        0.4509344309
 C         -2.8422625500        0.8105984811       -0.7696040292
 C         -3.6367836601        1.8641926014       -1.4841233887
 C         -5.1338713301        1.7532578511       -1.1629207287
 C         -5.4380182500        1.6472039404        0.3313646513
 H         -6.5237979900        1.6031823403        0.4395132913
 H         -5.0373578499        0.7036957503        0.7086948308
 C         -4.8853240700        2.8049300001        1.1741915718
 H         -4.6458837601        3.6508804404        0.5289569022
 H         -5.6612748200        3.1347414897        1.8680907720
 C         -3.6584625900        2.4467317498        2.0146046816
 H         -3.8635840899        1.5427015595        2.5932379512
 H         -3.4843321200        3.2591188795        2.7249058019
 C         -2.3533845800        2.2341195802        1.2366833914
 H         -2.1648337201        3.0901867205        0.5847087218
 H         -1.5379827200        2.1735621700        1.9636818714
 H         -5.6405338501        2.6259008313       -1.5791244983
 H         -5.5282579100        0.8629114113       -1.6582145591
 H         -3.2615537001        2.8451583513       -1.1978190483
 H         -3.4894718701        1.7331905519       -2.5578086687
 O         -2.7623001799       -0.3408853586       -1.4790291497
 C         -2.0962380998       -1.4582054488       -0.9845868402
 O         -2.0770454798       -2.4144597484       -1.7835835907
 H          0.4681109302       -1.6124184484       -1.2905793504
 C          1.1553549202       -1.6913941988       -0.4584875505
 C          0.7063172203       -2.1890975793        0.7572232893
 C          1.6061035303       -2.2759976897        1.8116138193
 C          2.9158082003       -1.8527351696        1.6599483594
 C          3.3402967102       -1.2999491190        0.4645356896
 C          2.4485680902       -1.2195213886       -0.5960503103
 N          2.8479814701       -0.5273337381       -1.7795557700
 S          2.2276682100        1.0478332319       -1.7265149593
 O          0.7845114800        1.0492217817       -1.6037414392
 O          2.7494160399        1.7178622224       -2.8985976990
 C          2.9805940500        1.6911848213       -0.2516031790
 C          4.2753341200        2.1671941014       -0.3240480189
 C          4.8867461500        2.6201016309        0.8338329213
 C          4.1979027800        2.5830462303        2.0371675213
 C          2.8989357400        2.1009591802        2.0920208312
 C          2.2798162300        1.6480189907        0.9375987910
 H          1.2723974601        1.2590748906        0.9463927909
 H          2.3608689301        2.0652478698        3.0256904012
 H          4.6749682500        2.9314147700        2.9396083315
 H          5.8965010499        2.9957087710        0.7956311215
 H          4.7673301799        2.1756083919       -1.2826544089
 H          2.4970126201       -0.9657805077       -2.6219849702
 H          4.3413948202       -0.9196463089        0.3441630098
 H          3.6019227603       -1.9228585799        2.4893615593
 H          1.2637557604       -2.6476186102        2.7660083391
 C         -0.7562599997       -2.5194131795        0.9200945992
 H         -0.9789825196       -2.4818008400        1.9990264093
 C         -1.1208460096       -3.9080582393        0.4254341386
 C         -0.2531080896       -4.6916537588       -0.5087859518
 C         -0.3622923195       -5.1010347995        0.9276687081
 H         -0.9128220994       -5.9971577096        1.1695257877
 H          0.4913507905       -4.9182154397        1.5623771581
 H         -0.7425863896       -5.2868515685       -1.2642275420
 H          0.6697837804       -4.2430258086       -0.8433167116
 H         -2.1909600096       -4.0270782493        0.2971759886
 O         -0.9788395798       -0.0483390701        2.1464519904
