  62
        -98.94555832
 C          2.5100166121        1.1809596092        0.0060477563
 C          3.1270297620        0.3313692686        0.9550100672
 C          3.7518680540       -0.8824811210        0.4195105958
 C          3.7117138941       -1.1252306109       -0.9034590690
 C          4.3173673521       -2.3114650441       -1.6034481933
 C          3.4198319673       -3.5566567464       -1.6051954036
 C          3.2942638073       -4.2690666433       -0.2578777850
 H          2.8188402658       -5.2332499088       -0.4482287102
 H          4.2893410394       -4.4683677912        0.1411434791
 C          2.4627973283       -3.5086071688        0.7850427301
 H          1.7614574182       -4.1961108124        1.2643120915
 H          1.8609998760       -2.7448833243        0.2843836150
 C          3.2866162847       -2.8518116265        1.8934815945
 H          3.7859594088       -3.6239871283        2.4826524353
 H          2.6029345912       -2.3138715239        2.5556510780
 C          4.3430121927       -1.8576404961        1.3925976532
 H          4.7131095663       -1.2904321641        2.2500770757
 H          5.1768364022       -2.3919822020        0.9386242814
 H          2.4259283180       -3.2715508018       -1.9597003222
 H          3.8401500824       -4.2611029246       -2.3266243248
 H          4.4859831454       -2.0082490700       -2.6388847848
 H          5.2786954289       -2.5543712603       -1.1501106226
 O          3.1087706166       -0.2838037676       -1.7840130823
 C          2.4628051752        0.8670457465       -1.3526665578
 O          1.9087040349        1.5122346805       -2.2618567530
 H          0.3157457554        0.4325158143        1.3896348809
 C         -0.2878142471        1.1216687949        0.8107655429
 C          0.3137600496        2.2528855983        0.2705831245
 C         -0.4687822153        3.1282136504       -0.4689211224
 C         -1.8126195953        2.8622660043       -0.6725669263
 C         -2.4034245946        1.7305632282       -0.1418780866
 C         -1.6305911243        0.8520350771        0.6071477687
 N         -2.2240875755       -0.3027308117        1.1566510940
 S         -2.9432710739       -1.3641153645        0.0666618000
 O         -2.9180189501       -2.6545565548        0.7211307415
 O         -2.3183032248       -1.2912770013       -1.2346068480
 C         -4.6260524216       -0.7906057456       -0.0221350311
 C         -5.3541571014       -0.7323609591        1.1502943448
 C         -6.6651150028       -0.2863191029        1.1016644342
 C         -7.2231190020        0.0888016401       -0.1116124466
 C         -6.4798475350        0.0209307722       -1.2801046401
 C         -5.1671381311       -0.4232961382       -1.2383898369
 H         -4.5476684348       -0.4861628466       -2.1189890446
 H         -6.9150615828        0.3129915848       -2.2222929315
 H         -8.2433900265        0.4367261765       -0.1469077878
 H         -7.2462925890       -0.2319205096        2.0080024394
 H         -4.8827006683       -1.0363761799        2.0698453873
 H         -1.6007064879       -0.8139244925        1.7662038452
 H         -3.4475525826        1.5187358966       -0.3048501218
 H         -2.4079081441        3.5466813825       -1.2574205507
 H         -0.0244652465        4.0103393112       -0.8991122611
 C          1.7953905722        2.4282440920        0.4984174247
 H          1.9722556656        2.4542613496        1.5838628510
 C          2.3739505061        3.6808978468       -0.1207921910
 C          2.2233324500        4.9972665270        0.5797407782
 C          3.5620052254        4.3266024360        0.5247623918
 H          4.3268419238        4.7478834313       -0.1100779929
 H          3.9458502840        3.8724566889        1.4266896136
 H          1.6979544348        5.0029245143        1.5226511555
 H          2.0703563283        5.8839973517       -0.0163022824
 H          2.3401625995        3.6675074058       -1.2039108929
 O          3.1477211162        0.5724853051        2.1928496022
