  62
        -98.93911033
 C         -1.8805605864        0.8379186021        0.1843163778
 C         -2.4678268162        0.1632405849       -0.9097080471
 C         -3.6093731387       -0.7186662499       -0.6097887211
 C         -4.0109063591       -0.8652458098        0.6668922193
 C         -5.1076912710       -1.7134818733        1.2766541934
 C         -6.1780810246       -2.3575401939        0.3994832805
 C         -7.1399621933       -1.3710329814       -0.2621776756
 H         -7.7899008273       -1.9294762615       -0.9394019143
 H         -7.7699637024       -0.9282593464        0.5133917001
 C         -6.4850933436       -0.2266256742       -1.0316081107
 H         -7.2821860401        0.4005607817       -1.4399105245
 H         -5.9077733760        0.3947188102       -0.3439503836
 C         -5.5866633756       -0.6490300074       -2.1921746882
 H         -6.1419625994       -1.3013437513       -2.8689519612
 H         -5.3169935500        0.2547267496       -2.7452303835
 C         -4.2790696376       -1.3549996761       -1.7939518913
 H         -3.5780498414       -1.2622093908       -2.6287885843
 H         -4.4394471910       -2.4166103190       -1.6208613381
 H         -5.7185728105       -3.0011228683       -0.3449431305
 H         -6.7684753687       -3.0043363148        1.0542489492
 H         -5.5934663341       -1.0777852238        2.0238823176
 H         -4.5943347538       -2.5044658651        1.8347187700
 O         -3.3777405751       -0.2313709876        1.6972213099
 C         -2.3129369225        0.6314490625        1.4930815009
 O         -1.8551412685        1.1348875996        2.5350980969
 O         -2.0494018699        0.2826140515       -2.0938529000
 C         -0.7183565987        1.7815100210       -0.0706196304
 C          0.5267796643        1.2366946935        0.5844555810
 C          1.2893690473        1.9427700035        1.5041117216
 C          2.4089482162        1.3630269314        2.0774898075
 C          2.7991270035        0.0815804186        1.7375604741
 C          2.0553771785       -0.6252942116        0.7997264116
 C          0.9330648907       -0.0451775582        0.2305139600
 H          0.3500318584       -0.5985576172       -0.4952523373
 N          2.4607399255       -1.9174129312        0.4255313717
 S          4.0885892447       -2.1663432691        0.1261726668
 O          4.1367378049       -3.2475617650       -0.8333155026
 O          4.7801122435       -2.4007629838        1.3695259346
 C          4.6711450785       -0.6476036936       -0.6086296389
 C          4.0683546436       -0.2125210273       -1.7723656000
 C          4.4859557367        0.9813413612       -2.3373611146
 C          5.4947831565        1.7159038162       -1.7328451574
 C          6.0948446835        1.2620887379       -0.5688230650
 C          5.6793115624        0.0698190115        0.0022428351
 H          6.1147387488       -0.3176773544        0.9088809063
 H          6.8805451425        1.8339338034       -0.1021624525
 H          5.8141068508        2.6470827223       -2.1734478633
 H          4.0199582985        1.3350293812       -3.2431271512
 H          3.2885737919       -0.8070079558       -2.2213265674
 H          1.8842677181       -2.3398754657       -0.2868325595
 H          3.6584999341       -0.3878747245        2.1881423963
 H          2.9844722827        1.9175244855        2.8026416757
 H          1.0010657245        2.9419772443        1.7843714535
 H         -0.5637368739        1.7614139907       -1.1593803769
 C         -1.0669651448        3.1938869778        0.3455390341
 C         -0.3674197518        4.3557451975       -0.2922089014
 C         -1.8016937602        4.0726328955       -0.6204800097
 H         -2.5619813191        4.7366338728       -0.2372733657
 H         -2.0344957840        3.6591627796       -1.5910543294
 H         -0.1427132556        5.2192481925        0.3151157106
 H          0.3763621798        4.1385377729       -1.0435221701
 H         -1.3383953129        3.2676843494        1.3922920926
