  62
        -98.94305004
 C         -1.7960197004       -1.3767905505       -0.0679348399
 C         -3.1175464603       -1.2063126906        0.4248971702
 C         -3.8917408004       -0.1023845205       -0.1517849796
 C         -3.3289910605        0.6915500996       -1.0800020396
 C         -3.9844023206        1.8607304296       -1.7633744794
 C         -3.9282112405        3.1654528295       -0.9566918892
 C         -4.8528740004        3.2190769794        0.2601254008
 H         -4.8786808404        4.2572801893        0.5970771010
 H         -5.8658129605        2.9506502194       -0.0417188491
 C         -4.4102019903        2.3317322893        1.4321039907
 H         -3.3612791303        2.0542500693        1.3043041006
 H         -4.4796300403        2.8977497292        2.3637288108
 C         -5.2392079103        1.0602044092        1.6132900206
 H         -4.8167005502        0.4908143991        2.4451017705
 H         -6.2660698503        1.3253878792        1.8749514707
 C         -5.2702753804        0.1455969394        0.3818521005
 H         -5.6905549003       -0.8177251807        0.6815861504
 H         -5.9049308904        0.5774749694       -0.3919154894
 H         -2.8977927005        3.3356013095       -0.6367809493
 H         -4.2055859006        3.9777596796       -1.6324463991
 H         -3.4491294007        2.0129187498       -2.7031975194
 H         -5.0225033306        1.6172537196       -1.9916783493
 O         -2.0621350405        0.4998421997       -1.5271428697
 C         -1.2603956705       -0.5269323604       -1.0379276699
 O         -0.1309383405       -0.5556160903       -1.5592443700
 O         -3.6264883302       -1.9453751207        1.3083789802
 C         -0.9605754603       -2.4757426306        0.5688189299
 C          0.3448035897       -1.8880771006        1.0372002998
 C          0.3937263898       -1.1821098807        2.2355551699
 C          1.5622872698       -0.5673816907        2.6458205399
 C          2.6973203098       -0.6187117306        1.8553013298
 C          2.6497011797       -1.3034670605        0.6481230297
 C          1.4885500997       -1.9574488005        0.2586091997
 H          1.4626449196       -2.4825299804       -0.6831406803
 N          3.7759382596       -1.3159394404       -0.1907255704
 S          4.6741097496        0.0859393797       -0.3301644703
 O          5.2587153295        0.0315756598       -1.6528526103
 O          5.6196454597        0.1546064596        0.7588970996
 C          3.5475791496        1.4689007996       -0.2110863800
 C          3.9286623396        2.5577191696        0.5487183001
 C          3.0855945896        3.6539498395        0.6270532502
 C          1.8761029095        3.6431056496       -0.0507676497
 C          1.5084460095        2.5424098997       -0.8079582198
 C          2.3500620395        1.4446450497       -0.8969045499
 H          2.0508145295        0.5816330997       -1.4698426600
 H          0.5643951094        2.5153286697       -1.3297046197
 H          1.2159772095        4.4939210196        0.0125262405
 H          3.3713268096        4.5096951995        1.2172445803
 H          4.8725625496        2.5193193795        1.0682584200
 H          3.5990443596       -1.7232188903       -1.0974832404
 H          3.6140621798       -0.1355490706        2.1533060598
 H          1.5891563899       -0.0322428508        3.5827233299
 H         -0.5005612201       -1.1135724008        2.8393227000
 H         -1.5411861002       -2.7774910507        1.4551392399
 C         -0.7815118603       -3.7285181105       -0.2749722803
 C         -1.9301290804       -4.2770137804       -1.0665308502
 C         -0.7320703004       -3.7198899303       -1.7722052403
 H         -0.0604648505       -4.4110173902       -2.2612951204
 H         -0.8264596205       -2.7735706802       -2.2805171602
 H         -2.0883720303       -5.3447790004       -1.0789918904
 H         -2.8426250804       -3.6987272604       -1.0788978801
 H         -0.1476176203       -4.4561690905        0.2235267996
