  62
        -98.93774532
 C         -2.6247121232       -0.1255458749       -0.5078192173
 C         -2.2576243862       -0.7124176824        0.7263909994
 C         -1.7619814157       -2.0985043145        0.6709194043
 C         -1.6393226639       -2.7085890772       -0.5201712808
 C         -1.1894365537       -4.1165678504       -0.8233961746
 C         -0.0165956181       -4.6848557510       -0.0163281660
 C          1.0785914913       -3.6708727628        0.3461753018
 H          2.0488527519       -4.0762291819        0.0513117812
 H          0.9383718770       -2.7374735512       -0.2030520845
 C          1.1356258324       -3.3652207489        1.8444285932
 H          1.0369586904       -4.3008072634        2.4010153388
 H          2.1154803283       -2.9405109890        2.0771725645
 C          0.0916684341       -2.3683312249        2.3447710655
 H          0.3217084343       -1.3734164242        1.9517143538
 H          0.1797966764       -2.3064107553        3.4327723421
 C         -1.3666653862       -2.7011082429        1.9882464335
 H         -1.5410883358       -3.7747128898        2.0077862241
 H         -2.0091827759       -2.2295190629        2.7371877801
 H         -0.3909193619       -5.1441925361        0.8975620484
 H          0.4158257525       -5.4868109818       -0.6174747293
 H         -2.0540302128       -4.7781446666       -0.7108117188
 H         -0.9292866734       -4.1058067251       -1.8848286340
 O         -1.9773604680       -2.0926893435       -1.6897019562
 C         -2.4488247929       -0.7939954480       -1.7168037619
 O         -2.6761504867       -0.3509769266       -2.8635312110
 H         -0.5804313012        1.1870822934       -1.4071250993
 C         -0.6736273227        1.9238130483       -0.6174459466
 C         -1.9229489768        2.1700167009       -0.0614818962
 C         -2.0166813079        3.1199736839        0.9462063111
 C         -0.8820591009        3.7643219721        1.4120651578
 C          0.3671742115        3.4688083561        0.8952885990
 C          0.4623928132        2.5469562042       -0.1354188374
 N          1.7513144064        2.1655220189       -0.6294698333
 S          2.1258343505        0.6167192043       -0.0448929373
 O          1.5065101916       -0.3989241441       -0.8720321950
 O          1.8204361491        0.5921087790        1.3620542198
 C          3.8936875029        0.5884251179       -0.2746096349
 C          4.4563052631       -0.2017793941       -1.2570098149
 C          5.8312493306       -0.1730296116       -1.4344714547
 C          6.6135400723        0.6445980854       -0.6336963084
 C          6.0330697431        1.4335478988        0.3487957088
 C          4.6602374025        1.4074636930        0.5319823679
 H          4.1631673992        1.9957348559        1.2852078909
 H          6.6448496655        2.0674568086        0.9701257079
 H          7.6825433016        0.6663691639       -0.7753914090
 H          6.2844140056       -0.7866652551       -2.1964267332
 H          3.8085332846       -0.8236413279       -1.8541970609
 H          1.7501339638        2.1018469643       -1.6403203452
 H          1.2613079488        3.9297493477        1.2813699671
 H         -0.9713515327        4.4880701040        2.2078551025
 H         -2.9763293960        3.3372399108        1.3864562746
 C         -3.0730437501        1.3268615121       -0.5578093058
 H         -3.2402342135        1.5575733271       -1.6202573466
 C         -4.3633028062        1.5372308466        0.2026173196
 C         -5.2680458066        2.6758304560       -0.1591423704
 C         -5.6647581852        1.2691705001       -0.4893087219
 H         -6.4623183784        0.8099319147        0.0748013716
 H         -5.6213866659        0.9519890509       -1.5212805549
 H         -4.9619139667        3.3186247882       -0.9705701606
 H         -5.7984920630        3.1839272675        0.6317510254
 H         -4.2821611900        1.2544726060        1.2453888209
 O         -2.3555183319       -0.1155426086        1.8303815763
