  62
        -98.93552868
 C          2.0174043207        1.1425278098       -0.0982399506
 C          2.5229055508       -0.0896004603       -0.5697198501
 C          3.9047393408       -0.4286433601       -0.1749731601
 C          4.6022595908        0.4407733903        0.5781293696
 C          6.0108468308        0.3185373806        1.1019979695
 C          7.0687619908       -0.1967283498        0.1140929397
 C          7.5726766510       -1.6028160796        0.4433259002
 H          8.5661977309       -1.7295025197        0.0074379002
 H          7.6791947810       -1.6892517892        1.5266649503
 C          6.6947484910       -2.7428150499       -0.0702374093
 H          7.0830448011       -3.6738310597        0.3495160711
 H          6.7910869610       -2.8118528303       -1.1560324093
 C          5.2080531310       -2.6326604298        0.2750999407
 H          4.7804729111       -3.6366958999        0.2304052711
 H          5.0774415810       -2.2782742394        1.2969053306
 C          4.4139615609       -1.7452494703       -0.6950955996
 H          5.0021310309       -1.5633551206       -1.5995295697
 H          3.5147878309       -2.2758034804       -1.0244727593
 H          6.6754415408       -0.1636433902       -0.9007668803
 H          7.9206815108        0.4840512303        0.1525128994
 H          5.9959961209       -0.3144708391        1.9926510898
 H          6.2757639308        1.3232061307        1.4391796591
 O          4.0687336708        1.6186674004        1.0130887991
 C          2.7773150107        1.9966683202        0.6989344690
 O          2.4264651907        3.0930275303        1.1795750186
 O          1.8551151608       -0.8782865607       -1.2895318198
 C          0.6051067607        1.5735800096       -0.4516603407
 C         -0.3811917992        0.5444374897        0.0436698697
 C         -0.3530513391        0.1890265602        1.3899756899
 C         -1.2310656690       -0.7510694396        1.8932685303
 C         -2.1615673990       -1.3562083700        1.0662947605
 C         -2.2061882091       -1.0005377705       -0.2742809096
 C         -1.3272731592       -0.0481542007       -0.7767053000
 H         -1.3743903693        0.2116388089       -1.8223991501
 N         -3.1578008791       -1.6001047209       -1.1152780893
 S         -4.7315867691       -1.7216414908       -0.5636791492
 O         -4.8522722190       -2.8449508605        0.3316433212
 O         -5.5473821491       -1.7739541113       -1.7563360492
 C         -5.0198251291       -0.2021862805        0.3267241202
 C         -5.2546331591       -0.2308681900        1.6859702802
 C         -5.4328497991        0.9663599003        2.3608897098
 C         -5.3697728793        2.1653557400        1.6686050093
 C         -5.1368708693        2.1775953195        0.3016805293
 C         -4.9583218793        0.9839993492       -0.3779123203
 H         -4.7823876793        0.9585977088       -1.4412132603
 H         -5.0906883294        3.1118684193       -0.2345336611
 H         -5.5036551693        3.0965785902        2.1961457389
 H         -5.6161271391        0.9600678707        3.4232927798
 H         -5.2953852890       -1.1845380598        2.1863926706
 H         -3.1205530292       -1.2862129713       -2.0735556395
 H         -2.8425846390       -2.1050348499        1.4366981509
 H         -1.1897828990       -1.0203506192        2.9378077304
 H          0.3772399609        0.6583254005        2.0354554196
 H          0.4281689807        2.5065530198        0.1024757589
 C          0.5025868206        1.8617813290       -1.9347077608
 C         -0.5267085895        2.8246650687       -2.4439240012
 C          0.9219973805        3.2082844088       -2.4396069914
 H          1.4454576205        3.2651881085       -3.3822619514
 H          1.2617628405        3.9277104591       -1.7087534817
 H         -0.9980684395        2.6239670883       -3.3944473111
 H         -1.1743346795        3.2920272190       -1.7179351813
 H          0.7508791907        1.0015039488       -2.5459282905
