  62
        -98.93937148
 C          2.1066502608       -0.3235665550        1.0643664816
 C          2.9300702114        0.8108455797        0.8548946176
 C          4.3347869314        0.5281026793        0.5147920089
 C          4.7557190651       -0.7455172534        0.4252297881
 C          6.1392182334       -1.1684561404        0.0263144868
 C          6.2390111281       -1.3812340671       -1.4907491970
 C          5.6725708193       -0.2252957843       -2.3154161375
 H          5.8260162476       -0.4719881067       -3.3682509468
 H          4.5936812340       -0.1676479815       -2.1533973125
 C          6.3049044401        1.1403528995       -2.0125304165
 H          6.5174116421        1.6447023755       -2.9575508867
 H          7.2567900821        1.0018523815       -1.4985880951
 C          5.4193448696        2.0818612707       -1.1943605638
 H          5.8648057964        3.0797273222       -1.2254448798
 H          4.4319570219        2.1496548063       -1.6575923855
 C          5.2346739432        1.7094826939        0.2821193604
 H          6.2097160865        1.5480800288        0.7460205015
 H          4.7522031101        2.5558872672        0.7795954343
 H          7.2882535970       -1.5356686609       -1.7491562791
 H          5.6881144568       -2.2885245049       -1.7497245124
 H          6.3707850134       -2.1074140069        0.5320374749
 H          6.8517896206       -0.4102066633        0.3451765377
 O          3.9400586937       -1.8089894596        0.6445176334
 C          2.6049362601       -1.6250865144        0.9577044059
 O          1.9697460968       -2.6862355355        1.1263780519
 O          2.5347929147        2.0013083575        0.9390236469
 C          0.6323699034       -0.2235024984        1.4192989993
 C         -0.2169762331       -0.1303185811        0.1766814071
 C          0.0714406181        0.7893811127       -0.8281152086
 C         -0.7115114459        0.8557216092       -1.9653505157
 C         -1.8085456956        0.0242154825       -2.1136635960
 C         -2.1106720323       -0.8901822430       -1.1129154476
 C         -1.3103780986       -0.9691562976        0.0193140331
 H         -1.5548199567       -1.6940424654        0.7809387849
 N         -3.2325448375       -1.7390546049       -1.2175035868
 S         -4.4439036946       -1.5319346973       -0.0784271856
 O         -3.9244016037       -1.7989345106        1.2369854679
 O         -5.5376530589       -2.3629006654       -0.5272453045
 C         -4.8855955980        0.1899078074       -0.2326921031
 C         -4.1366540228        1.1338708670        0.4409808233
 C         -4.4257527875        2.4763145997        0.2544352856
 C         -5.4525410577        2.8493762790       -0.5993234126
 C         -6.1976139689        1.8890747529       -1.2672390330
 C         -5.9096559815        0.5455231772       -1.0887468087
 H         -6.4650656975       -0.2345055222       -1.5841479592
 H         -6.9978013870        2.1827599912       -1.9273825111
 H         -5.6734357943        3.8952616996       -0.7428174776
 H         -3.8452205911        3.2210216247        0.7751729249
 H         -3.3492556838        0.8075776273        1.0999973359
 H         -3.6431418444       -1.7529262957       -2.1411483190
 H         -2.4238026794        0.0790988595       -2.9992353741
 H         -0.4725700206        1.5690742034       -2.7393049786
 H          0.9103623376        1.4558952513       -0.7002647913
 H          0.3893270630       -1.1799553827        1.9089787161
 C          0.3327158345        0.8889872894        2.4179679253
 C         -0.5808856068        2.0353476366        2.1145582924
 C         -1.0237151340        0.9575520569        3.0552904106
 H         -1.0893517270        1.1817179943        4.1094056059
 H         -1.7665646644        0.2492254899        2.7152321778
 H         -0.3204757713        3.0005836447        2.5210022618
 H         -1.0323678003        2.0819663197        1.1358211224
 H          1.1806995333        1.1047577482        3.0583504103
