  62
        -98.94268884
 C         -1.2915184820       -1.6274755473        0.3220332404
 C         -1.8961798408       -1.1308001664       -0.8588059699
 C         -2.9578550589       -0.1295070944       -0.6633452004
 C         -3.2216297484        0.3276128763        0.5737059995
 C         -4.2494763865        1.3707529083        0.9030389790
 C         -3.6627246339        2.7880198472        0.8588084888
 C         -2.8659427330        3.0892510855       -0.4100343310
 H         -2.5299946310        4.1263268649       -0.3464854011
 H         -1.9734808741        2.4594709238       -0.4278929506
 C         -3.6483260530        2.8925180867       -1.7154815312
 H         -4.7192942731        2.8751060087       -1.5100563214
 H         -3.4583699312        3.7449306562       -2.3711760713
 C         -3.2625808451        1.6350938558       -2.4955651808
 H         -3.7053366048        1.7032561364       -3.4930262609
 H         -2.1774051952        1.6005186437       -2.6233267405
 C         -3.7215716578        0.3062242068       -1.8830783907
 H         -4.7908962778        0.3546389488       -1.6656818610
 H         -3.5597137291       -0.4749290637       -2.6319159005
 H         -3.0006412038        2.9146352862        1.7174984390
 H         -4.4830867225        3.5018358088        0.9532306785
 H         -5.0753351465        1.2882066997        0.1984460488
 H         -4.6242731872        1.1740767592        1.9089686389
 O         -2.5507460495       -0.0989384747        1.6731809897
 C         -1.6045885913       -1.1049106065        1.5805741802
 O         -1.1139914823       -1.4484550572        2.6735535004
 H          0.5710526903       -0.5963599711       -1.1336161994
 C          1.3940231092       -1.1467234526       -0.7011816790
 C          1.1396044269       -2.2755034119        0.0615858811
 C          2.2206172554       -2.9683898639        0.5969627615
 C          3.5179128163       -2.5452427663        0.3700000918
 C          3.7664011686       -1.4114826669       -0.3841787184
 C          2.6940801200       -0.7084653350       -0.9145447388
 N          2.9410472625        0.4873488544       -1.6294913790
 S          3.4283676646        1.7746811136       -0.6711913791
 O          3.4450662970        2.9306499934       -1.5372810793
 O          4.6758579438        1.4266677914       -0.0418676587
 C          2.1492792247        1.9541946263        0.5611878205
 C          1.2254979266        2.9707334080        0.4251982201
 C          0.2018393666        3.0753078601        1.3532896498
 C          0.1004840445        2.1454890005        2.3764740500
 C          1.0316405726        1.1258662188        2.4968131004
 C          2.0739229427        1.0330062366        1.5882659107
 H          2.8245187712        0.2639244652        1.6692111810
 H          0.9345686410        0.3926895391        3.2816748205
 H         -0.7093447555        2.2063524821        3.0868589397
 H         -0.5149273519        3.8765682614        1.2732471394
 H          1.3317259481        3.6635618776       -0.3943300200
 H          2.1511277232        0.7785753257       -2.1895416092
 H          4.7666905493       -1.0445638389       -0.5450790482
 H          4.3445972751       -3.0961086678        0.7915849621
 H          2.0385685036       -3.8408961834        1.2054583217
 C         -0.2707846741       -2.7507757292        0.3233607908
 H         -0.2904083151       -3.1676091290        1.3401739009
 C         -0.6226707759       -3.8604652488       -0.6523621890
 C         -0.2847511887       -5.2820287593       -0.3253210186
 C         -1.7125867878       -4.8269752267       -0.3030966091
 H         -2.3784051982       -5.1563899756       -1.0863747392
 H         -2.1945881079       -4.7081400556        0.6567600707
 H          0.0368801003       -5.9299144601       -1.1261676484
 H          0.1892569807       -5.4863907500        0.6224492715
 H         -0.5509933651       -3.5510163691       -1.6872711591
 O         -1.5851509511       -1.4886287172       -2.0263854697
