  62
        -98.93460579
 C          1.7544346792       -0.5598234416       -1.0400797115
 C          2.0393818108       -0.2220724966        0.3040724624
 C          3.4519397892       -0.3262241194        0.7214869038
 C          4.3848202034       -0.7104514468       -0.1685332544
 C          5.8728126459       -0.9469397287       -0.0145460116
 C          6.6288908604       -0.4069565410        1.1968382173
 C          6.7090288709        1.1171231036        1.2755720416
 H          7.1850481323        1.3848551787        2.2214628202
 H          7.3523694659        1.4739495175        0.4672017265
 C          5.3771026781        1.8552126748        1.1637137339
 H          4.9444391437        1.6837263467        0.1757707728
 H          5.5816225395        2.9265776781        1.2417827900
 C          4.3398777186        1.5018307789        2.2280960727
 H          3.5115924803        2.2084010851        2.1262794659
 H          4.7731866804        1.6346146250        3.2213084723
 C          3.7490527434        0.0840587050        2.1347921119
 H          4.3912299510       -0.6464020306        2.6208931275
 H          2.7909560836        0.0842309328        2.6624283978
 H          7.6512598549       -0.7869123130        1.1186513561
 H          6.2121224273       -0.8131841407        2.1136984778
 H          6.3309690150       -0.5522828137       -0.9270354741
 H          6.0069183077       -2.0339294545       -0.0485959337
 O          4.0615562064       -1.0145193438       -1.4605377881
 C          2.7638920978       -0.9269433758       -1.9309004770
 O          2.6408847482       -1.1901590466       -3.1439881766
 O          1.1681136043        0.1453437514        1.1328935308
 C          0.3486824666       -0.4652413250       -1.6062543938
 C         -0.3083948857        0.8180818417       -1.1596180342
 C          0.3457045439        2.0245111250       -1.4003817047
 C         -0.2143194145        3.2235254422       -1.0079635823
 C         -1.4548609729        3.2505138957       -0.3937382448
 C         -2.1216772793        2.0556013034       -0.1614914911
 C         -1.5441846074        0.8498144994       -0.5352881479
 H         -2.0692201704       -0.0645491362       -0.3185783863
 N         -3.3802128763        2.0367527966        0.4598404186
 S         -4.5692993899        1.0307983619       -0.1518870289
 O         -4.4463640979        0.8734002904       -1.5829509368
 O         -5.8125614750        1.6053534022        0.3177365596
 C         -4.3215722241       -0.5337387797        0.6601080658
 C         -4.0926302158       -0.5496300382        2.0215301409
 C         -3.9413829619       -1.7702616455        2.6595436432
 C         -4.0286170979       -2.9476441075        1.9321388887
 C         -4.2623862291       -2.9147889690        0.5657390746
 C         -4.4113065363       -1.6967854184       -0.0788544948
 H         -4.5842661198       -1.6243718812       -1.1409773518
 H         -4.3269711427       -3.8310273675        0.0003621077
 H         -3.9099547007       -3.8964752081        2.4313997366
 H         -3.7550519150       -1.8004329880        3.7209564789
 H         -4.0305083454        0.3840322601        2.5548911441
 H         -3.7489754086        2.9452445233        0.7009152685
 H         -1.8985569981        4.1877348033       -0.0929821297
 H          0.3128904745        4.1483372581       -1.1897230910
 H          1.3108592157        2.0059263977       -1.8896236420
 H          0.4867456876       -0.4018417512       -2.6992344522
 C         -0.5085162295       -1.6961245461       -1.3485954118
 C          0.1122572492       -3.0442833450       -1.1400348401
 C         -0.5724377657       -2.3510561535       -0.0025608824
 H         -1.5239924087       -2.7342796286        0.3357208910
 H          0.0320078769       -1.9267569010        0.7828233398
 H         -0.3680793155       -3.9013016756       -1.5875972677
 H          1.1910746626       -3.1035770070       -1.1330739858
 H         -1.4275361157       -1.6765223789       -1.9276548379
