  62
        -98.94103798
 C          2.0081820672       -0.3497268102       -0.0959711427
 C          3.1012849526       -1.0677895125       -0.6483189204
 C          4.3367407073       -0.3066463571       -0.8723475702
 C          4.3518046149        1.0114375737       -0.6050375024
 C          5.5554753469        1.8986529270       -0.7310807827
 C          6.3406037916        1.9570592450        0.5869964093
 C          6.6303921514        0.5849583440        1.1959288659
 H          7.2133806281        0.7493943847        2.1047310878
 H          5.6878752840        0.1232580120        1.4992782338
 C          7.3889957885       -0.3745747703        0.2682997659
 H          8.1851543805       -0.8570387430        0.8392084806
 H          7.8632228838        0.1870742143       -0.5373236569
 C          6.5302804151       -1.4905412229       -0.3298017359
 H          7.1981750441       -2.2259888064       -0.7860287176
 H          5.9821992006       -1.9983249388        0.4680281893
 C          5.5259948297       -1.0555257340       -1.4044996790
 H          6.0381959138       -0.4708235159       -2.1712934182
 H          5.1258675332       -1.9601243048       -1.8717965407
 H          5.7611788114        2.5367306399        1.3095104137
 H          7.2800804497        2.4824866872        0.4061208149
 H          6.1935072839        1.5261601492       -1.5302246793
 H          5.2168295425        2.9039865728       -0.9873287806
 O          3.2685367811        1.6802994446       -0.1392747232
 C          2.0731140697        1.0249379448        0.1394087188
 O          1.1850349844        1.7782461431        0.5780011598
 H         -1.2069334651        0.3760787050        1.3950434237
 C         -1.3521832289        0.2993394683        0.3288991139
 C         -0.4514035544       -0.4237262909       -0.4370841987
 C         -0.6444265635       -0.4828902225       -1.8139755326
 C         -1.7057764661        0.1732059526       -2.4088136922
 C         -2.5952388451        0.9055876836       -1.6428607420
 C         -2.4087239379        0.9738528621       -0.2687076675
 N         -3.3045580135        1.7231085561        0.5133224153
 S         -4.9421383765        1.4759822114        0.2903845289
 O         -5.3808923073        2.1510896674       -0.9053991578
 O         -5.5644647315        1.9024873943        1.5237647176
 C         -5.1035215592       -0.2886904807        0.0855347530
 C         -5.4077153204       -0.8176899632       -1.1518563228
 C         -5.4658422987       -2.1949661539       -1.2953633525
 C         -5.2166737530       -3.0144092556       -0.2057340761
 C         -4.9156066101       -2.4673773910        1.0325025160
 C         -4.8549523738       -1.0916756547        1.1813475003
 H         -4.6317431823       -0.6305243752        2.1300876924
 H         -4.7251015817       -3.1074454732        1.8790627602
 H         -5.2585772012       -4.0860610338       -0.3205175220
 H         -5.7016999822       -2.6234020752       -2.2561082902
 H         -5.5971217724       -0.1455501712       -1.9724830337
 H         -3.0628175940        1.7565264283        1.4922914826
 H         -3.4196583526        1.4380399719       -2.0888044977
 H         -1.8401588305        0.1196843018       -3.4785343996
 H          0.0570267557       -1.0444311813       -2.4155811136
 C          0.7325304818       -1.1313231320        0.1687221393
 H          0.8796081742       -2.0756060292       -0.3802532888
 C          0.5168770531       -1.5117353428        1.6262724783
 C          1.6806944430       -1.8725194577        2.4989362797
 C          0.8983368480       -0.6246080771        2.7718885796
 H          0.2540419365       -0.6062901547        3.6393325085
 H          1.3497110215        0.3288996369        2.5467323973
 H          1.5800695016       -2.7054782690        3.1781891193
 H          2.6691316918       -1.7715116894        2.0746173604
 H         -0.3832998014       -2.1055633221        1.7539815286
 O          3.0450317821       -2.2920390589       -0.9398065160
