  62
        -98.93877399
 C          1.2204036922        1.4646129122        0.5298431584
 C          1.5745844133        0.6052874643       -0.5381564116
 C          2.4577986433       -0.5184775717       -0.1875994701
 C          2.7890066788       -0.7317923013        1.0979533187
 C          3.6225668259       -1.8638763409        1.6385346721
 C          5.1033385932       -1.8813539530        1.2123310778
 C          5.3953384747       -2.7421760925       -0.0229436489
 H          6.3374133632       -3.2713857393        0.1342826593
 H          4.6204007341       -3.5046429324       -0.1112382961
 C          5.5241590854       -1.9860183898       -1.3487729574
 H          6.5057543889       -1.5085751439       -1.3923323500
 H          5.4805753995       -2.7195094499       -2.1567276418
 C          4.4763880755       -0.9024733318       -1.6052383149
 H          4.5623081903       -0.5870078022       -2.6468446227
 H          4.7019520602       -0.0230351003       -0.9973795467
 C          3.0239835243       -1.3300560835       -1.3161490360
 H          2.3965307770       -1.1259738587       -2.1855019595
 H          2.9774885448       -2.3947367708       -1.0929452818
 H          5.4494728376       -0.8598191913        1.0569172340
 H          5.6684665213       -2.2888238464        2.0522135690
 H          3.5667071167       -1.7729632896        2.7253468785
 H          3.1572577331       -2.8124493181        1.3599890449
 O          2.3441750206        0.0667239759        2.1083847604
 C          1.5795089882        1.1913664478        1.8492948728
 O          1.2713540057        1.8480481142        2.8663200081
 H         -1.2750212662        1.2055209888        1.6981245621
 C         -1.7205370623        1.4458832793        0.7402689994
 C         -1.0117660136        2.2467031916       -0.1482179512
 C         -1.5895004024        2.5506940996       -1.3724250753
 C         -2.8404403200        2.0528023137       -1.6985770963
 C         -3.5393766439        1.2509888108       -0.8155901522
 C         -2.9723251517        0.9503210034        0.4167926422
 N         -3.6704890394        0.1183758281        1.3181293860
 S         -4.0734278103       -1.3957794973        0.7203997195
 O         -5.2514560628       -1.2823728314       -0.1016651128
 O         -4.1912404340       -2.2510114507        1.8801687715
 C         -2.6757552743       -1.8753165198       -0.2779031593
 C         -2.7837372500       -1.9009339995       -1.6528649307
 C         -1.6668627008       -2.2268067155       -2.4052508944
 C         -0.4678652185       -2.5152418320       -1.7736869174
 C         -0.3749532517       -2.4820958132       -0.3911886549
 C         -1.4869281237       -2.1551340906        0.3659598591
 H         -1.4482689865       -2.1240527899        1.4438985120
 H          0.5613642971       -2.6958101171        0.0991407411
 H          0.4020213668       -2.7640292049       -2.3599769161
 H         -1.7322016860       -2.2486734062       -3.4809778131
 H         -3.7348818731       -1.6703725388       -2.1039545207
 H         -3.2011696710        0.0209312857        2.2075076721
 H         -4.5092763628        0.8474515036       -1.0574347255
 H         -3.2755183591        2.2909458395       -2.6570129784
 H         -1.0566818251        3.1663177651       -2.0775439466
 C          0.3655605604        2.6958107272        0.2750196598
 H          0.2702526791        3.2033361983        1.2456433148
 C          1.0383109983        3.6340242475       -0.7027585863
 C          0.6656369366        5.0850554839       -0.7169864582
 C          1.9989193944        4.6587059245       -0.1818999739
 H          2.8829342915        4.8786268370       -0.7614541817
 H          2.1584841876        4.6958618208        0.8862572284
 H         -0.0812924845        5.4161344868       -0.0112589784
 H          0.6359090402        5.6016856284       -1.6641618120
 H          1.2810886867        3.1581480589       -1.6448878255
 O          1.1833138687        0.7609976934       -1.7216376910
