  62
        -98.93450833
 C         -1.5873804090       -1.6920401427        0.3912655999
 C         -2.0621320841       -1.0574105173       -0.7811970869
 C         -3.0033771254        0.0631265775       -0.5849323192
 C         -3.3381095392        0.4442762710        0.6585265496
 C         -4.2903222991        1.5312203311        1.0914000426
 C         -4.2613340589        2.8574474970        0.3201229269
 C         -2.8755131142        3.2851860511       -0.1849887222
 H         -2.1016885035        2.6626573442        0.2654719261
 H         -2.6842553370        4.3138214460        0.1257227044
 C         -2.7466250477        3.2252844883       -1.7085718003
 H         -1.9091801843        3.8575146168       -2.0151020280
 H         -3.6519298048        3.6421909866       -2.1552721495
 C         -2.4979546889        1.8345491647       -2.2911084262
 H         -1.4863144409        1.5045341843       -2.0368949656
 H         -2.5383816290        1.9145213100       -3.3802975095
 C         -3.4781745566        0.7389909954       -1.8396344226
 H         -3.4940748982       -0.0346509076       -2.6123304330
 H         -4.4841938549        1.1352790955       -1.7272656760
 H         -4.6536149048        3.6207605941        0.9941688096
 H         -4.9467514202        2.8050740150       -0.5245189180
 H         -5.3048668384        1.1230735353        1.0597615096
 H         -4.0533628024        1.7146614591        2.1423235958
 O         -2.8383697296       -0.1802817029        1.7625068502
 C         -1.9692395412       -1.2523443996        1.6617016864
 O         -1.6119077739       -1.7236971646        2.7577159383
 H          0.4262569968       -1.2027644888       -1.4679665929
 C          1.1495750201       -1.4398872378       -0.7014359104
 C          0.7973018976       -2.3193274053        0.3136928988
 C          1.7389249717       -2.6170242741        1.2904722808
 C          3.0001588053       -2.0455417838        1.2508300009
 C          3.3404392734       -1.1544727660        0.2488283893
 C          2.4025022564       -0.8497134301       -0.7294971794
 N          2.7108681222        0.1138488450       -1.7119121163
 S          3.1673259915        1.6071472142       -1.0967538125
 O          2.6556535779        2.5897582915       -2.0259489259
 O          4.5953241339        1.6182730730       -0.8984165878
 C          2.3518099744        1.7359810931        0.4882715615
 C          0.9763030577        1.6208332468        0.5419931034
 C          0.3500189714        1.6564533965        1.7766145337
 C          1.1017907349        1.8146623807        2.9304751106
 C          2.4797356470        1.9423092989        2.8592129707
 C          3.1132152398        1.8960376509        1.6277817700
 H          4.1833953788        1.9746628926        1.5266224906
 H          3.0608927837        2.0672783112        3.7584571831
 H          0.6042574709        1.8314406634        3.8872107683
 H         -0.7208347741        1.5417256288        1.8413307782
 H          0.4103383874        1.4998953003       -0.3692818416
 H          1.9712993609        0.2283155180       -2.3912260661
 H          4.3076635069       -0.6791222417        0.2141494920
 H          3.7212639432       -2.2856199232        2.0167751363
 H          1.4702260120       -3.2837684776        2.0963430438
 C         -0.6085243399       -2.8581189243        0.3760511081
 H         -0.7338482034       -3.3512345079        1.3520587903
 C         -0.9206349380       -3.8882694826       -0.7009300974
 C         -0.0066937518       -4.1973454512       -1.8455222564
 C         -0.1620410807       -5.1823966230       -0.7288060685
 H         -0.7033192282       -6.0980896839       -0.9121971646
 H          0.6625056622       -5.2864279137       -0.0394440336
 H          0.9249799617       -3.6590616792       -1.9221857606
 H         -0.4601007668       -4.4157727410       -2.8005648338
 H         -1.9834325431       -3.9464229311       -0.9113769257
 O         -1.7356827389       -1.3905246911       -1.9504487398
