  62
        -98.94505871
 C         -1.5370356788       -0.7778986399       -0.4480381926
 C         -2.8321098794       -1.3448894166       -0.4843494872
 C         -3.9453329509       -0.3927577699       -0.5979485736
 C         -3.6790038208        0.9243777484       -0.6722408857
 C         -4.7183630381        2.0052002045       -0.7384922535
 C         -5.0947390295        2.5012714631        0.6646453992
 C         -5.4195359422        1.3786365314        1.6500008686
 H         -4.5150201059        0.7950477532        1.8361214271
 H         -5.6999107029        1.8465987055        2.5961986876
 C         -6.5431422920        0.4380270090        1.1927053565
 H         -7.2191046465        0.2649861950        2.0328430013
 H         -7.1252274049        0.9125824424        0.4018734831
 C         -6.0660588165       -0.9349336651        0.7153512143
 H         -6.9398091375       -1.5859037736        0.6248275585
 H         -5.4074702086       -1.3762468244        1.4678700350
 C         -5.3380305779       -0.9565478391       -0.6347065025
 H         -5.2296231084       -2.0026511800       -0.9361887759
 H         -5.9422564963       -0.4443384536       -1.3863029893
 H         -5.9534450536        3.1692895555        0.5760397534
 H         -4.2564315798        3.0756165490        1.0652949070
 H         -5.6004976655        1.6236469781       -1.2489521466
 H         -4.3105488007        2.8394926531       -1.3114966577
 O         -2.4198815015        1.4303913270       -0.6477921802
 C         -1.3155521944        0.5978032136       -0.5251160367
 O         -0.2229818990        1.1909328744       -0.4991811550
 O         -3.0473212085       -2.5859327555       -0.4204465026
 C         -0.3318030737       -1.6923104655       -0.3327442358
 C          0.5108680988       -1.2961926805        0.8534429733
 C         -0.1057321571       -1.0791737106        2.0835146959
 C          0.6310347746       -0.6891279240        3.1842099092
 C          1.9978993432       -0.4955079169        3.0819685221
 C          2.6254350419       -0.7259872790        1.8644716148
 C          1.8843734659       -1.1385148011        0.7648255240
 H          2.4006645946       -1.3354846911       -0.1585047126
 N          4.0091479964       -0.5582325268        1.7328079623
 S          4.6982262040       -0.1335071811        0.2743855184
 O          4.7538364143       -1.2797840539       -0.5986671052
 O          5.9796311785        0.4299637403        0.6447237189
 C          3.6667739136        1.1338560948       -0.4394731397
 C          3.2125216609        0.9877359389       -1.7333779221
 C          2.4315195340        1.9877875180       -2.2876611421
 C          2.1170191940        3.1104189434       -1.5403903804
 C          2.5832068531        3.2441000557       -0.2427393463
 C          3.3674455603        2.2492279174        0.3156453847
 H          3.7464681206        2.3289732651        1.3218359845
 H          2.3299173911        4.1171904124        0.3370404424
 H          1.4979709206        3.8819718644       -1.9700281234
 H          2.0612786415        1.8831788552       -3.2954958082
 H          3.4730352296        0.0935547424       -2.2781511754
 H          4.4724672314       -0.1276234209        2.5184772946
 H          2.5731604319       -0.1751632789        3.9369509710
 H          0.1371869211       -0.5223643379        4.1297697902
 H         -1.1760185342       -1.2145904681        2.1619368754
 H         -0.7375893954       -2.6992773779       -0.1538968448
 C          0.4390410316       -1.6995702511       -1.6363839063
 C          1.2451404073       -2.8985415132       -2.0344226001
 C         -0.0257373068       -2.5748888590       -2.7596759482
 H          0.0361035848       -2.1962301649       -3.7688570746
 H         -0.8905409134       -3.1965138798       -2.5789490112
 H          2.1873358935       -2.7449169578       -2.5396019295
 H          1.2451442161       -3.7451410801       -1.3643669676
 H          0.8223679928       -0.7174625241       -1.8922344035
