  62
        -98.93319157
 C         -2.0644188000       -1.0008811298        0.6001824510
 C         -3.2467566200       -1.3945981206       -0.0854623986
 C         -4.4412448801       -0.5671781305        0.1431783907
 C         -4.3886694302        0.4271179103        1.0457494197
 C         -5.5070874404        1.3833753805        1.3401876488
 C         -5.4219180905        2.6315345096        0.4506439976
 C         -5.2326350505        2.3212031782       -1.0344230321
 H         -5.2168691506        3.2750544077       -1.5665336030
 H         -4.2538836804        1.8575356182       -1.1802007017
 C         -6.3163992604        1.4167636875       -1.6380178112
 H         -7.1948016704        1.4102240380       -0.9918380312
 H         -6.6239093405        1.8337959365       -2.5993267216
 C         -5.8688809702       -0.0228562927       -1.8989599899
 H         -4.9350075602       -0.0185357231       -2.4672447299
 H         -6.6269759601       -0.5066913934       -2.5204030494
 C         -5.6722163601       -0.8960075815       -0.6533128390
 H         -6.5633263801       -0.8453120510       -0.0245292391
 H         -5.5438299299       -1.9297920818       -0.9871554680
 H         -6.3332763906        3.2162949596        0.5879424971
 H         -4.5762416606        3.2379770801        0.7838059570
 H         -6.4584147903        0.8782350002        1.1841015593
 H         -5.4336499704        1.6869350515        2.3857869385
 O         -3.2794697003        0.6883439512        1.7807768694
 C         -2.0970002802       -0.0201706988        1.5924451301
 O         -1.1940754902        0.3200839421        2.3815349098
 H          0.3009222697        0.6686045599       -0.1269735806
 C          0.8992151598        0.0692948206        0.5464423400
 C          0.4526560800       -1.1884865091        0.9327478612
 C          1.2437897501       -1.9328838182        1.7967446519
 C          2.4474836800       -1.4350466876        2.2672160014
 C          2.8856625699       -0.1836900479        1.8780584602
 C          2.0935513898        0.5741904212        1.0252538795
 N          2.5735154796        1.8524147709        0.6101969683
 S          3.3262886496        1.7644667295       -0.8953856417
 O          3.8064952594        3.0981222293       -1.1843245829
 O          2.4488297096        1.1925734185       -1.8964289611
 C          4.6808026797        0.6629348400       -0.5693658506
 C          4.5050110799       -0.6897227202       -0.7854548793
 C          5.5434166100       -1.5548119198       -0.4800586185
 C          6.7301031900       -1.0544864591        0.0342883110
 C          6.8901566498        0.3069834411        0.2443076897
 C          5.8548220697        1.1777149907       -0.0564532611
 H          5.9319354895        2.2427847608        0.0879515978
 H          7.8149322997        0.6913664816        0.6434539393
 H          7.5355611401       -1.7312384688        0.2721957916
 H          5.4200019802       -2.6135698599       -0.6411088475
 H          3.5648990200       -1.0350277807       -1.1858627790
 H          1.8327148095        2.5389964507        0.5563783476
 H          3.8184604798        0.2218061226        2.2346940398
 H          3.0481362401       -2.0287357368        2.9386836020
 H          0.9066457302       -2.9118383579        2.1069510328
 C         -0.7852817299       -1.7730387799        0.3061258618
 H         -0.9188063798       -2.8017895395        0.6737886227
 C         -0.5170913999       -1.8405194913       -1.1976284182
 C          0.7113429202       -2.5508269316       -1.6906572575
 C         -0.6453190398       -3.1189511720       -1.9628781770
 H         -1.0445107698       -3.0726813330       -2.9643765470
 H         -0.9582628996       -3.9950243615       -1.4168067561
 H          1.3308565302       -3.0421898108       -0.9553919170
 H          1.2627697201       -2.1040540523       -2.5046798679
 H         -0.7910673301       -0.9297538218       -1.7207037590
 O         -3.3103935699       -2.3935909513       -0.8442740676
