  62
        -98.94042264
 C         -2.4800726566       -1.2335064587       -0.0204440065
 C         -2.4045479872       -0.0102647475       -0.7285168333
 C         -3.6879609841        0.6611267340       -0.9817282404
 C         -4.8286680245        0.0865629060       -0.5580595100
 C         -6.1955670441        0.6909123065       -0.6948817901
 C         -6.5538507607        1.5346043179        0.5367788894
 C         -5.4634993325        2.5247076894        0.9465992148
 H         -5.8379815220        3.0828966110        1.8073533803
 H         -4.5839200155        1.9698222077        1.2812929025
 C         -5.0494838243        3.5067143533       -0.1581835182
 H         -5.8161107720        3.5376375696       -0.9331672303
 H         -4.9809642881        4.5085027522        0.2709514302
 C         -3.6939401902        3.2046543793       -0.8001096769
 H         -2.9364079830        3.0802107503       -0.0216749246
 H         -3.4022336382        4.0685323159       -1.4034930341
 C         -3.6482998454        1.9730831902       -1.7134526552
 H         -4.4522177728        2.0299888594       -2.4502294841
 H         -2.6919956876        1.9896323451       -2.2450618806
 H         -7.4784208115        2.0753740577        0.3273219768
 H         -6.7365311118        0.8603384532        1.3765681222
 H         -6.2265016294        1.3061564662       -1.5918421959
 H         -6.9210498919       -0.1181199074       -0.7938637769
 O         -4.8612509468       -1.1011912510        0.0987512363
 C         -3.6926016472       -1.7830005469        0.3953211095
 O         -3.8617068921       -2.8467019181        1.0248734973
 H          1.4666484186       -1.4177951870       -0.1318717340
 C          1.0568914462       -0.9236621255        0.7320803177
 C         -0.2694590270       -1.1071399443        1.0885154091
 C         -0.7548918483       -0.4533963577        2.2188041249
 C          0.0605547203        0.3819298595        2.9560444988
 C          1.3764001659        0.5861320720        2.5791821942
 C          1.8764694089       -0.0738385474        1.4634448836
 N          3.2272399416        0.0816908331        1.0979667985
 S          3.6539348191        0.2419493283       -0.5287553362
 O          2.9913676148        1.3856180836       -1.1158112315
 O          3.4737895449       -1.0222594742       -1.1946772228
 C          5.3965546513        0.5761175309       -0.3422105616
 C          5.8540116411        1.8779519838       -0.4163556916
 C          7.2066984198        2.1249005485       -0.2411829761
 C          8.0738636834        1.0716556470        0.0066936393
 C          7.6001446946       -0.2301771062        0.0771393606
 C          6.2491506841       -0.4837143102       -0.0979977040
 H          5.8367872046       -1.4783552612       -0.0601183025
 H          8.2779671764       -1.0466407802        0.2672670879
 H          9.1259588986        1.2663419492        0.1426644617
 H          7.5780398569        3.1353942287       -0.2991219589
 H          5.1443144275        2.6637748435       -0.6201585477
 H          3.6769871491        0.8139449613        1.6327311150
 H          2.0110358399        1.2497114844        3.1472457396
 H         -0.3322133565        0.8869006801        3.8260258400
 H         -1.7876538828       -0.6050693689        2.5043352119
 C         -1.2085039075       -1.9949077599        0.3084450732
 H         -1.5116461241       -2.8294214968        0.9581829441
 C         -0.5970700352       -2.5614917241       -0.9554644169
 C          0.2301914386       -3.8091806273       -0.8985592281
 C         -1.1357981483       -3.8428832556       -1.5137908886
 H         -1.2191189756       -3.9432297957       -2.5855705123
 H         -1.9333850783       -4.3234759047       -0.9657027898
 H          0.3621813183       -4.2759104486        0.0659378467
 H          1.0914507284       -3.8823466969       -1.5456790945
 H         -0.3079688163       -1.7907301703       -1.6621524871
 O         -1.3233356577        0.4988986003       -1.1269682079
