  62
        -98.93895820
 C         -2.1214117744       -1.0724417830        0.4368108642
 C         -2.1979240310       -0.2696303499       -0.7251945593
 C         -2.9084450876        1.0152681725       -0.5857774613
 C         -3.3901864339        1.3707247378        0.6175721384
 C         -4.1820881227        2.6016312753        0.9629235542
 C         -5.6920035030        2.3211776070        0.8724357751
 C         -6.3037034538        2.5260481858       -0.5128038667
 H         -7.3366815545        2.1739192498       -0.4664628016
 H         -6.3310311770        3.5941789092       -0.7379928545
 C         -5.5889722321        1.8031970160       -1.6573281450
 H         -6.2923673036        1.7129041588       -2.4871907408
 H         -5.3244695422        0.7912916769       -1.3453857412
 C         -4.3346625743        2.5416075255       -2.1482085879
 H         -4.3830130747        2.6559064698       -3.2330516678
 H         -4.3266707985        3.5488206371       -1.7320082602
 C         -3.0021251471        1.8442951465       -1.8375267709
 H         -2.7562585543        1.1498693652       -2.6472646380
 H         -2.1999970944        2.5905804244       -1.8179097642
 H         -6.2119113242        2.9784229476        1.5723171157
 H         -5.8613439946        1.2928970244        1.2019693008
 H         -3.9349696006        2.8496806905        1.9974653636
 H         -3.8960150741        3.4342428608        0.3270502433
 O         -3.2504397021        0.5872776409        1.7237334500
 C         -2.6139850110       -0.6385589734        1.6661287808
 O         -2.5429975175       -1.2353982944        2.7610651281
 H          0.2376611293       -0.8257739698        1.7169081175
 C          0.7488488512       -1.2853175578        0.8783493549
 C          0.0485738756       -2.1708067978        0.0670324449
 C          0.7122068136       -2.7524659506       -1.0037656176
 C          2.0360416888       -2.4371489016       -1.2604872561
 C          2.7243025124       -1.5462291662       -0.4577145052
 C          2.0714388922       -0.9660971340        0.6224515762
 N          2.7678898850       -0.0526740214        1.4460962618
 S          3.2005494737        1.3963023119        0.7014146205
 O          3.3657098918        2.3447063945        1.7822546231
 O          2.2587393817        1.7609498334       -0.3332335545
 C          4.7919463643        1.0402696935       -0.0113145971
 C          5.8310612101        0.7246217492        0.8423899608
 C          7.0752525104        0.4388128071        0.3034446639
 C          7.2580777858        0.4754778068       -1.0711358130
 C          6.2051926092        0.7974863582       -1.9140208165
 C          4.9574090443        1.0834263083       -1.3816618902
 H          4.1069793989        1.3327662900       -1.9960638418
 H          6.3490197168        0.8258270289       -2.9821638739
 H          8.2272775147        0.2522274135       -1.4883545090
 H          7.8966266911        0.1885767367        0.9552867212
 H          5.6452554394        0.7136804373        1.9033911874
 H          2.2672065406        0.1592865704        2.2986510376
 H          3.7537538343       -1.2971080854       -0.6570459226
 H          2.5377432929       -2.8905630431       -2.1015794407
 H          0.1891993091       -3.4405434157       -1.6469166646
 C         -1.4052426887       -2.4122697916        0.3948055425
 H         -1.4602691800       -2.8160911244        1.4162611062
 C         -2.1001947652       -3.3698172554       -0.5483925181
 C         -1.9455229872       -4.8482077854       -0.3598148472
 C         -3.2492893017       -4.1838333483       -0.0372525488
 H         -4.0920127514       -4.3526348395       -0.6906262577
 H         -3.5209627702       -4.0626085062        1.0015753698
 H         -1.8954952887       -5.4775199277       -1.2352772776
 H         -1.3320649951       -5.1849047552        0.4620670562
 H         -2.1712751278       -2.9843940444       -1.5584470164
 O         -1.7080591327       -0.6090281827       -1.8335553204
