  62
        -98.93949134
 C          2.2974549394        1.2077710102        0.4769952009
 C          2.5756883493        0.6003324200       -0.7723917090
 C          3.7069661991       -0.3416912503       -0.7883571489
 C          4.3768560190       -0.5948357103        0.3498563511
 C          5.5186328488       -1.5600865905        0.4802606712
 C          5.0235927886       -2.9615164803        0.8636770614
 C          3.8694600984       -3.4665971702       -0.0024402885
 H          3.6246810782       -4.4752675901        0.3378312216
 H          2.9887951386       -2.8452987300        0.1789499614
 C          4.1692974784       -3.4924445805       -1.5078249785
 H          5.2467798784       -3.4507382607       -1.6708561586
 H          3.8156842682       -4.4406031904       -1.9181324084
 C          3.4917537286       -2.3794307604       -2.3096144186
 H          2.4240396486       -2.3556509202       -2.0760025486
 H          3.5880986785       -2.6198268106       -3.3715917086
 C          4.0603187289       -0.9692237905       -2.1075810588
 H          5.1429268189       -0.9851280908       -2.2486035589
 H          3.6216644190       -0.3232945305       -2.8736787989
 H          5.8632368184       -3.6553863905        0.7945333214
 H          4.6870827686       -2.9381077101        1.9029807314
 H          6.0617624188       -1.6002372607       -0.4618966288
 H          6.1886636489       -1.1955276805        1.2607867911
 O          4.0505573892       -0.0280118100        1.5404678410
 C          3.0001488094        0.8703267202        1.6360422710
 O          2.7886648495        1.2880533404        2.7927445809
 H         -0.0350924408       -0.1185262093        1.0342176812
 C         -0.5658774507        0.4657118608        0.2900013911
 C         -0.0742800805        1.7174969106       -0.0634884691
 C         -0.7711337904        2.4542028606       -1.0118358691
 C         -1.9194710205        1.9449934608       -1.5933509390
 C         -2.4008990907        0.6979799310       -1.2402595889
 C         -1.7122858809       -0.0466859491       -0.2919284288
 N         -2.2239281411       -1.3167311489        0.0851041314
 S         -3.4681334611       -1.2071841485        1.2200701214
 O         -3.1787479408       -0.1968736584        2.2154831513
 O         -3.6602623513       -2.5514693484        1.7187361716
 C         -4.8716879910       -0.7130652483        0.2474679414
 C         -5.4569903412       -1.6451276183       -0.5872075585
 C         -6.5379723812       -1.2597843282       -1.3640357285
 C         -7.0099428509        0.0427612519       -1.2940753886
 C         -6.4116379607        0.9654258519       -0.4492856088
 C         -5.3307655307        0.5866356118        0.3312496813
 H         -4.8316812905        1.2684314718        1.0008064512
 H         -6.7800010704        1.9772239820       -0.3965286689
 H         -7.8502446608        0.3406736820       -1.9011367386
 H         -7.0073955813       -1.9742563382       -2.0209432384
 H         -5.0595731414       -2.6463241084       -0.6053250883
 H         -1.5094495712       -1.9220517790        0.4672424015
 H         -3.2857035008        0.2899735111       -1.7007193988
 H         -2.4435579504        2.5262544208       -2.3362695991
 H         -0.4030303502        3.4210265305       -1.3128492593
 C          1.1677262996        2.2097774804        0.6389858108
 H          0.9490577197        2.2174800006        1.7207171108
 C          1.5467441399        3.6359147003        0.2657754606
 C          2.9702892600        4.1012360900        0.3278301505
 C          2.2846669200        3.9629084000       -0.9964444894
 H          2.0158084701        4.8637735800       -1.5283289295
 H          2.5616821598        3.1416731899       -1.6377744393
 H          3.1672584803        5.0925420500        0.7077204204
 H          3.7247578199        3.3752623099        0.5949844506
 H          0.7980006901        4.3504573905        0.5936879106
 O          1.9262242993        0.8258788300       -1.8249630690
