  62
        -98.94418475
 C          1.9782312501        1.2240715907       -0.0261761103
 C          2.3922150404        0.2368495008       -0.9527672503
 C          3.8237595805       -0.0904210090       -0.9337607201
 C          4.6501442802        0.5586037811       -0.0938225600
 C          6.1352609002        0.3496031114        0.0253041703
 C          6.5269252803       -0.8174453886        0.9420232503
 C          6.2590321106       -2.2107898286        0.3715266502
 H          6.7047317408       -2.2881811285       -0.6206932997
 H          6.7745163006       -2.9252446185        1.0164390403
 C          4.7736043107       -2.5925298489        0.3019067400
 H          4.1943642405       -1.9271678790        0.9464988299
 H          4.6390588508       -3.6056063389        0.6877542700
 C          4.1751889109       -2.5616801889       -1.1046613201
 H          4.6547191811       -3.3233930388       -1.7235537500
 H          3.1126910709       -2.8081880091       -1.0293898902
 C          4.2981914608       -1.2066651589       -1.8140254800
 H          5.3282674808       -1.0370707887       -2.1266359099
 H          3.6603939609       -1.2254644790       -2.7011361601
 H          6.0009142602       -0.7063661287        1.8930572102
 H          7.5972824203       -0.7299508284        1.1422307104
 H          6.5654230504        0.1967086415       -0.9647391697
 H          6.5464928400        1.2699951314        0.4454109803
 O          4.2158161800        1.5224948811        0.7610468300
 C          2.8733006299        1.8531007608        0.8405612798
 O          2.6050559196        2.7114334208        1.7050469998
 H         -1.3628168495        0.1270728102       -1.3066232408
 C         -1.1804680596       -0.2500686098       -0.3128222408
 C         -0.2675063498        0.3852876303        0.5126368094
 C         -0.0483326099       -0.1353894696        1.7855549094
 C         -0.7222508498       -1.2616105798        2.2180467593
 C         -1.6295063796       -1.8976873099        1.3872225591
 C         -1.8508623695       -1.3882431699        0.1164296091
 N         -2.7973077993       -2.0204635401       -0.7231275810
 S         -4.3894442794       -1.8451395103       -0.2288097713
 O         -4.5823066494       -2.5799273904        0.9946793287
 O         -5.2014787791       -2.2453196804       -1.3550680714
 C         -4.5602581497       -0.0949549003        0.0712694187
 C         -4.9360224297        0.7255987596       -0.9735909513
 C         -4.9810247299        2.0948647496       -0.7681450913
 C         -4.6365801202        2.6181476596        0.4688002988
 C         -4.2573628402        1.7809438897        1.5067221188
 C         -4.2171248499        0.4100240897        1.3094583388
 H         -3.9309778499       -0.2726064703        2.0926616788
 H         -3.9874690704        2.1902307697        2.4671183089
 H         -4.6645014304        3.6852112096        0.6248673388
 H         -5.2781030599        2.7496180396       -1.5715517813
 H         -5.1976523395        0.2772707896       -1.9187557213
 H         -2.7146535892       -1.7341969400       -1.6889684810
 H         -2.1757151595       -2.7698641600        1.7082575390
 H         -0.5397765699       -1.6507659197        3.2084562793
 H          0.6651017699        0.3587410705        2.4315054495
 C          0.5115150200        1.6048246505        0.0863232895
 H          0.4525228498        2.3453507704        0.8955617995
 C          0.0084655501        2.2380281604       -1.1934134306
 C         -1.2681113900        3.0231794002       -1.1756551808
 C          0.0445842699        3.7286421604       -1.3338742006
 H          0.2932622200        4.1484481405       -2.2970314305
 H          0.4262952997        4.2982467005       -0.4992547305
 H         -1.7846721502        3.1106322501       -0.2319191108
 H         -1.9242969199        2.9621880201       -2.0305136108
 H          0.2362667903        1.6499019405       -2.0744958106
 O          1.6160582306       -0.3407173293       -1.7576630204
