  62
        -98.94279931
 C         -2.6828256937       -1.1546397822        0.2669764546
 C         -2.7687634938       -0.3304612319       -0.8811729894
 C         -3.6826617210        0.8181287130       -0.7817626871
 C         -4.3855914693        1.0156244133        0.3474310315
 C         -5.2887081344        2.1854761590        0.6064389452
 C         -4.5232292156        3.3369050297        1.2741824798
 C         -3.2098172199        3.6937837713        0.5777335429
 H         -2.7745696239        4.5368948606        1.1184810075
 H         -2.5145179095        2.8566705097        0.6757784606
 C         -3.3563832772        4.0595743120       -0.9059678837
 H         -4.3950471617        4.3095105405       -1.1252533668
 H         -2.7590088105        4.9512227362       -1.1075911810
 C         -2.8811429912        2.9767487028       -1.8765836380
 H         -2.8256585746        3.4163779945       -2.8761739985
 H         -1.8720349396        2.6572217078       -1.6033325858
 C         -3.7714740060        1.7312406313       -1.9724730638
 H         -4.8056818038        2.0304022091       -2.1531326856
 H         -3.4295634538        1.1431869402       -2.8292233124
 H         -4.2967115536        3.0503738783        2.3037441955
 H         -5.1730581807        4.2134617507        1.3003976849
 H         -5.7225253614        2.5199522604       -0.3338216444
 H         -6.0906897568        1.8604417303        1.2712262877
 O         -4.3078947546        0.1834541917        1.4159223908
 C         -3.4537364536       -0.9039504045        1.4080743120
 O         -3.4731501881       -1.5729175266        2.4603190485
 H         -0.1009964772       -0.9032336847       -1.2079441789
 C          0.3695782890       -1.1716416798       -0.2737624955
 C         -0.3417650108       -1.9187428141        0.6540157191
 C          0.2748990745       -2.2464983003        1.8559594378
 C          1.5672307701       -1.8284001431        2.1205218678
 C          2.2674949964       -1.0702944690        1.1990255820
 C          1.6614988514       -0.7394925169       -0.0060260077
 N          2.3389767018        0.0601296162       -0.9381718996
 S          3.9603479300       -0.2067081002       -1.2563760842
 O          4.1841906786        0.3517335474       -2.5716741987
 O          4.3186587939       -1.5948497966       -1.0792215306
 C          4.7977697132        0.8002851793       -0.0494754886
 C          5.7725246270        0.2462469668        0.7567701537
 C          6.4159713466        1.0536006378        1.6820352691
 C          6.0760139145        2.3938011581        1.7830495580
 C          5.0969171691        2.9358742884        0.9636866073
 C          4.4508638222        2.1343626462        0.0362893337
 H          3.6868862661        2.5176591229       -0.6196124561
 H          4.8347900738        3.9785467305        1.0451068258
 H          6.5768554615        3.0200487480        2.5043659310
 H          7.1778795213        0.6345248247        2.3194417062
 H          6.0008239861       -0.8020526485        0.6467311661
 H          1.8141754844        0.2364577234       -1.7821929293
 H          3.2726448412       -0.7391896037        1.4025051589
 H          2.0335509390       -2.0902209305        3.0581008769
 H         -0.2719265941       -2.8214850992        2.5892088204
 C         -1.7580121565       -2.3593900149        0.3658998537
 H         -2.1123414846       -2.9317764212        1.2334038731
 C         -1.8178232475       -3.2595841810       -0.8529699886
 C         -1.3962685404       -4.6906010405       -0.7190844887
 C         -2.8436012097       -4.3494757017       -0.9073687150
 H         -3.3095111654       -4.5714384025       -1.8557373978
 H         -3.5066266037       -4.4539026742       -0.0606207774
 H         -0.8639359023       -5.1493075539       -1.5382987874
 H         -1.0787179710       -5.0296377783        0.2554678211
 H         -1.5868820939       -2.7512776468       -1.7796232358
 O         -2.1225666928       -0.5154910543       -1.9484550788
