  62
        -98.94005428
 C         -2.3038120395       -0.9066858003        0.1897926800
 C         -2.9535144898       -0.0403753702        1.1081197396
 C         -3.7505037599        1.0497740795        0.5323377091
 C         -3.8176523597        1.1746589390       -0.8052865809
 C         -4.6197029498        2.2138457986       -1.5326324514
 C         -6.0352379297        1.7099171582       -1.8456742615
 C         -6.7517129497        1.0968421084       -0.6425808614
 H         -7.7515323996        0.8068105281       -0.9727275314
 H         -6.2327707196        0.1819678486       -0.3474624910
 C         -6.8640212101        2.0285280388        0.5722371083
 H         -6.6963353703        3.0611614787        0.2641851580
 H         -7.8806878002        1.9690354387        0.9663497481
 C         -5.9185842603        1.6836294594        1.7244375586
 H         -6.0152303601        0.6238269595        1.9730376089
 H         -6.2304038405        2.2551706696        2.6026176883
 C         -4.4347424103        1.9892930696        1.4850672087
 H         -4.3216647205        3.0231749396        1.1521574584
 H         -3.9139107504        1.8764620601        2.4403355188
 H         -6.6206728398        2.5454984179       -2.2335972218
 H         -5.9675740094        0.9503338479       -2.6280366712
 H         -4.6699878801        3.1149982288       -0.9243899817
 H         -4.1109548197        2.4464933184       -2.4697720214
 O         -3.1829207994        0.3303547289       -1.6554027505
 C         -2.4046339993       -0.7242790208       -1.1896463000
 O         -1.8765627890       -1.3882535210       -2.1019959697
 H          0.1416595607       -0.8032672002       -1.0149336096
 C          0.6416003806       -0.9372925798       -0.0664848194
 C         -0.0336965094       -1.5572123796        0.9753739306
 C          0.6302721504       -1.7393296390        2.1824641108
 C          1.9346846203       -1.3040329087        2.3389924009
 C          2.5989931703       -0.6724969389        1.3027838508
 C          1.9466065305       -0.4900659895        0.0900515606
 N          2.5869969805        0.1771479903       -0.9635288295
 S          4.2072695506       -0.0961070594       -1.2839384991
 O          4.3875360408        0.2944406801       -2.6645004792
 O          4.5991349309       -1.4436138092       -0.9414788086
 C          5.0437575902        1.0734578111       -0.2334917894
 C          4.6590310399        2.3980761310       -0.3036919199
 C          5.2983273896        3.3246652614        0.5041221399
 C          6.3085801795        2.9141400919        1.3612440502
 C          6.6873262398        1.5816618220        1.4159603107
 C          6.0505475201        0.6493730616        0.6113537809
 H          6.3081790904       -0.3978073083        0.6250904413
 H          7.4736332098        1.2650278624        2.0821563710
 H          6.8031829593        3.6375367422        1.9900077400
 H          5.0058704494        4.3616376413        0.4639069795
 H          3.8712556500        2.6769672606       -0.9836613001
 H          2.0407029806        0.2270331899       -1.8106534496
 H          3.6127685802       -0.3279586387        1.4222953008
 H          2.4391631201       -1.4506864883        3.2816828610
 H          0.1129869904       -2.2121438289        3.0042221109
 C         -1.4591356993       -2.0157060700        0.7923098706
 H         -1.8819092594       -2.1758938697        1.7967199805
 C         -1.5654293289       -3.3350316602        0.0402768010
 C         -0.4459882286       -3.9289236603       -0.7558816886
 C         -0.8448458187       -4.5489846499        0.5476838415
 H         -1.3575451085       -5.4987575500        0.5357565918
 H         -0.1761917589       -4.4161619495        1.3847250416
 H         -0.7002120384       -4.4337571706       -1.6754906185
 H          0.4916019412       -3.3965278001       -0.8028517786
 H         -2.5640717088       -3.4939776306       -0.3541536591
 O         -2.8674583600       -0.1771341897        2.3575028197
