  62
        -98.94030928
 C         -2.2548972106       -1.0508151632       -0.3836574123
 C         -3.5766109044       -1.0789122753        0.1275613618
 C         -4.4689460668       -0.0115907970       -0.3355895259
 C         -4.0131896573        0.9057376252       -1.2077626282
 C         -4.8049576008        2.0470189244       -1.7863870268
 C         -4.8495467397        3.2905702785       -0.8877689015
 C         -5.7282090702        3.1614430538        0.3571477006
 H         -5.8397968578        4.1638775667        0.7750462354
 H         -6.7208602705        2.8176716812        0.0649573026
 C         -5.1589702943        2.2356438823        1.4413738498
 H         -4.0939256676        2.0722718874        1.2591020246
 H         -5.2447968967        2.7211063042        2.4161326608
 C         -5.8572539175        0.8797777383        1.5478407167
 H         -6.8940066104        1.0251776833        1.8589223665
 H         -5.3520287156        0.2948523968        2.3204688520
 C         -5.8466966740        0.0596118048        0.2509786204
 H         -6.1607541921       -0.9599042368        0.4869185551
 H         -6.5454572835        0.4842471733       -0.4691132126
 H         -5.2316839690        4.1161156055       -1.4926813319
 H         -3.8285520546        3.5416814975       -0.5902652775
 H         -5.8207439153        1.7160494262       -2.0038569243
 H         -4.3175605206        2.3178521970       -2.7254420346
 O         -2.7424198884        0.8882750374       -1.6912572484
 C         -1.8235761571       -0.0663353219       -1.2730274185
 O         -0.6911087766        0.0704597272       -1.7743859541
 O         -3.9902351894       -1.9553029410        0.9327157448
 C         -1.2749856635       -2.1038062648        0.1081363487
 C         -0.2808731055       -1.4299712479        1.0221147559
 C         -0.7101829096       -1.0378049745        2.2886333115
 C          0.1438725208       -0.3807135281        3.1518271956
 C          1.4414096557       -0.0936093904        2.7650826691
 C          1.8805405098       -0.4805470353        1.5047202183
 C          1.0229345193       -1.1519148619        0.6424529136
 H          1.3800846571       -1.4247324065       -0.3358772215
 N          3.2103038846       -0.2308400175        1.1126637610
 S          3.5040966927        0.3707972775       -0.4408563078
 O          2.7304375929        1.5721029951       -0.6626978977
 O          3.3572611078       -0.6960029471       -1.3965169156
 C          5.2324111727        0.7853963991       -0.2749324409
 C          5.5985931129        2.0963986235       -0.0364962944
 C          6.9419368918        2.4007250605        0.1192587990
 C          7.8913058147        1.3933574729        0.0377736702
 C          7.5089083649        0.0818586756       -0.2025228238
 C          6.1676156706       -0.2285005361       -0.3604275594
 H          5.8234197708       -1.2303214858       -0.5570059473
 H          8.2500930370       -0.6982213840       -0.2679217148
 H          8.9359229294        1.6324692465        0.1593852677
 H          7.2417464901        3.4199255447        0.3028090056
 H          4.8256486939        2.8468342384        0.0100662412
 H          3.6944899238        0.3475610454        1.7881011379
 H          2.1104858082        0.4252100145        3.4352849129
 H         -0.2023079506       -0.0834876642        4.1303330273
 H         -1.7294177510       -1.2513752127        2.5800103096
 H         -1.8775616151       -2.7939549997        0.7160816542
 C         -0.6447161503       -2.8822211692       -1.0250201129
 C         -0.0048406394       -4.2061473702       -0.7361535005
 C         -1.2966363214       -4.1473863292       -1.4931963675
 H         -1.2879108837       -4.3694646290       -2.5497498666
 H         -2.1993609661       -4.4591857105       -0.9883417126
 H          0.8956300456       -4.4678593721       -1.2705312311
 H         -0.0309167360       -4.5585861583        0.2839331351
 H         -0.1873705205       -2.2514807039       -1.7783538752
