  62
        -98.94184529
 C         -1.9857265498       -1.0001543814        0.3491691313
 C         -2.2620590098        0.1344598459       -0.4533941736
 C         -3.5101541535        0.8474156441       -0.1417298862
 C         -4.2768662734        0.4513480908        0.8889831605
 C         -5.5559256057        1.0983749593        1.3459809425
 C         -6.7981398883        0.6432573613        0.5677404352
 C         -6.9043614376        1.1795447981       -0.8604648651
 H         -7.9165029244        0.9641352947       -1.2087116284
 H         -6.7882161868        2.2637904798       -0.8496454129
 C         -5.9019212895        0.5617622904       -1.8452790752
 H         -5.4974814069       -0.3605070123       -1.4217512355
 H         -6.4189580120        0.2900740972       -2.7683835445
 C         -4.7421068783        1.4806428203       -2.2293168855
 H         -5.1257657989        2.3470953022       -2.7726098039
 H         -4.0765766878        0.9308115141       -2.8996468534
 C         -3.9108018763        1.9790501735       -1.0399785081
 H         -2.9973356219        2.4367381583       -1.4278044647
 H         -4.4672882586        2.7308205203       -0.4806348000
 H         -6.8178713558       -0.4489150876        0.5495783093
 H         -7.6740202712        0.9817657030        1.1260368987
 H         -5.6859430372        0.8214363385        2.3944457474
 H         -5.4621039984        2.1829583823        1.2827788408
 O         -3.9499830455       -0.6107221342        1.6719490274
 C         -2.8239807421       -1.3706245248        1.4057264723
 O         -2.6745478265       -2.3434473437        2.1720978550
 H          0.2736838074        0.5801657832       -0.0584082502
 C          0.8523011840       -0.0492898087        0.6014077012
 C          0.4472657949       -1.3594341361        0.8185681234
 C          1.2082601550       -2.1593516847        1.6625566088
 C          2.3412663484       -1.6562851485        2.2788935845
 C          2.7407364852       -0.3500972536        2.0615737035
 C          1.9886031379        0.4560762325        1.2163404126
 N          2.3937657612        1.7817667835        0.9749955926
 S          3.9943167923        2.0192295220        0.5414760926
 O          4.8202616146        1.9866176343        1.7229055938
 O          4.0109465501        3.2552177700       -0.2078498611
 C          4.3906140282        0.6364306957       -0.5131359305
 C          5.2609554091       -0.3407025055       -0.0747730362
 C          5.5065785525       -1.4335335789       -0.8907115307
 C          4.8794503796       -1.5305619060       -2.1230069654
 C          4.0122686436       -0.5374613775       -2.5519972779
 C          3.7607934552        0.5562102851       -1.7394743333
 H          3.0915934314        1.3460923980       -2.0427702105
 H          3.5237445722       -0.6152040030       -3.5098720026
 H          5.0651662012       -2.3846331514       -2.7546793389
 H          6.1817915627       -2.2064496364       -0.5608525568
 H          5.7284469475       -0.2251644768        0.8892357209
 H          1.7744139777        2.2802651346        0.3523031691
 H          3.6159429443        0.0614733956        2.5374644718
 H          2.9188617514       -2.2870181623        2.9370247317
 H          0.8975743693       -3.1774880613        1.8457695488
 C         -0.7803898737       -1.9027983102        0.1344746419
 H         -1.0429814065       -2.8488749637        0.6330855271
 C         -0.5452814482       -2.2225919863       -1.3371691599
 C          0.6012907771       -1.6898132740       -2.1369113562
 C          0.5784593891       -3.1324853270       -1.7377245857
 H          0.3936366663       -3.8806476063       -2.4933558189
 H          1.2623227435       -3.4432390489       -0.9623535060
 H          0.4089324265       -1.4285093267       -3.1662467357
 H          1.3094668287       -1.0397091773       -1.6484043141
 H         -1.4827784318       -2.3460131634       -1.8708204142
 O         -1.5209998249        0.5548088182       -1.3794780959
