  62
        -98.93937155
 C          1.3375094778        1.1918205541       -0.1376916142
 C          2.1969844909        0.6249707510        0.8399968133
 C          2.9472747183       -0.5803426976        0.4523295345
 C          2.7892227273       -1.0817434384       -0.7841464180
 C          3.4155083948       -2.3132554507       -1.3899107895
 C          4.9026031472       -2.5631452208       -1.1053457960
 C          5.7597290474       -1.2962215853       -0.9690401307
 H          6.6299951982       -1.3848679316       -1.6220557075
 H          5.1941062066       -0.4230559570       -1.2989287865
 C          6.2646642441       -1.0679607955        0.4578428390
 H          6.6013435754       -2.0231426201        0.8667615919
 H          7.1326293949       -0.4051742372        0.4210873862
 C          5.2556024637       -0.4396689226        1.4184189182
 H          5.6977987447       -0.4402426155        2.4175252168
 H          5.0852158075        0.6051148608        1.1450201173
 C          3.8852223188       -1.1332367797        1.4861631598
 H          3.4381879494       -0.8975916842        2.4554678778
 H          3.9866495941       -2.2124257371        1.4020391613
 H          5.0055046885       -3.1600139328       -0.2002610172
 H          5.2819373541       -3.1727542879       -1.9272699783
 H          3.2616927257       -2.2093790623       -2.4669347826
 H          2.8405894866       -3.1867987653       -1.0673531328
 O          1.9511912908       -0.5087309216       -1.6924521410
 C          1.2055455568        0.6238499785       -1.4033734499
 O          0.4896957151        0.9942279583       -2.3563942249
 O          2.3289512157        1.1060458351        1.9950660014
 C          0.5495546777        2.4250469861        0.2784478988
 C         -0.8608095831        2.0171190247        0.6288566214
 C         -1.2855972653        1.9723628299        1.9518013709
 C         -2.5543575395        1.5202090784        2.2717528204
 C         -3.4163788131        1.0824200738        1.2821655295
 C         -2.9951112424        1.1156198179       -0.0406769796
 C         -1.7374452640        1.6004285178       -0.3627663552
 H         -1.4145106690        1.6043103035       -1.3927366849
 N         -3.8317378446        0.5875434066       -1.0472665425
 S         -4.2788949488       -1.0093124137       -0.7882076570
 O         -4.3986826405       -1.6063492377       -2.0998416689
 O         -5.4720253043       -1.0392516509        0.0211995045
 C         -2.9269892769       -1.7379439018        0.1261425389
 C         -3.1589905264       -2.2534859896        1.3850870518
 C         -2.0959044859       -2.7739527154        2.1052215699
 C         -0.8216996045       -2.7622473894        1.5601140154
 C         -0.6053951023       -2.2437359307        0.2929989651
 C         -1.6648027857       -1.7269243614       -0.4343850690
 H         -1.5126270851       -1.3151452833       -1.4203694370
 H          0.3875356521       -2.2254266712       -0.1283369494
 H          0.0104356377       -3.1550858518        2.1225884635
 H         -2.2615368589       -3.1792097386        3.0902818950
 H         -4.1637011332       -2.2320848182        1.7746257729
 H         -3.4342283580        0.6858463431       -1.9715196788
 H         -4.3977089070        0.6987744096        1.5107332155
 H         -2.8704477793        1.4943751767        3.3031359419
 H         -0.6037593903        2.2745116326        2.7330467437
 H          1.0349513644        2.7792438632        1.1972603376
 C          0.5864330225        3.5410184052       -0.7454805837
 C          0.2453313042        4.9337220484       -0.3104010424
 C          1.6604360793        4.5816370768       -0.6557744475
 H          2.0812700764        4.9673265371       -1.5722972061
 H          2.3755020184        4.4952810741        0.1493662543
 H         -0.3087440208        5.5641859024       -0.9887238485
 H          0.0006446674        5.0855757752        0.7299308587
 H          0.2798293271        3.2342766332       -1.7369111836
