  62
        -98.94186302
 C         -2.7715102075       -0.3555297651       -0.2973937647
 C         -2.0150957782        0.4860025826       -1.1492835126
 C         -2.0769262384        1.9251633317       -0.8550394224
 C         -2.8545992146        2.3679476031        0.1479012620
 C         -2.9743318455        3.8001719789        0.5790358539
 C         -1.9710146717        4.1374403728        1.6904524069
 C         -0.5369642898        3.6972588847        1.3933076352
 H         -0.4817044698        2.6053114681        1.3840635767
 H          0.0843345223        4.0341082524        2.2265528816
 C          0.0391351820        4.2382977489        0.0776397138
 H          1.0592733559        4.5810107553        0.2626639810
 H         -0.5400612619        5.1004030100       -0.2566311244
 C          0.1141059010        3.2032211907       -1.0465772587
 H          0.5774883059        2.2910687094       -0.6592764431
 H          0.7608380409        3.6011865543       -1.8337054328
 C         -1.2261631719        2.8336896461       -1.6966085267
 H         -1.0129523275        2.2801020476       -2.6155853069
 H         -1.7712096992        3.7421054206       -1.9610999879
 H         -2.2938499650        3.6447647736        2.6106221545
 H         -1.9929305678        5.2162276186        1.8569830307
 H         -2.8108436047        4.4470847152       -0.2806245405
 H         -3.9858574614        3.9605138723        0.9563841754
 O         -3.6058642089        1.5378024755        0.9154973538
 C         -3.5533833327        0.1673710757        0.7381057518
 O         -4.2544270085       -0.4769119491        1.5446503688
 H         -0.1860787096       -1.4775853534       -1.1500177909
 C         -0.2401094766       -2.0304602363       -0.2240533204
 C         -1.4817326987       -2.3581753528        0.3014748450
 C         -1.5273254182       -3.0500743868        1.5060081898
 C         -0.3605223309       -3.3866079048        2.1716467734
 C          0.8738108019       -3.0224500515        1.6622857062
 C          0.9256222692       -2.3346021428        0.4583507806
 N          2.1784795079       -1.8820688908       -0.0389525343
 S          2.6818629787       -0.5198802758        0.8411656718
 O          3.0530042989       -0.9625088850        2.1618707166
 O          1.6752901158        0.5175046409        0.7798029700
 C          4.1350941983       -0.0336546644       -0.0686432734
 C          5.3125487059       -0.7235209561        0.1476113197
 C          6.4353009246       -0.3762542844       -0.5863171768
 C          6.3614160647        0.6474298104       -1.5194531162
 C          5.1722462281        1.3304005460       -1.7248242929
 C          4.0447870568        0.9869449635       -0.9950997724
 H          3.1006831418        1.4940406127       -1.1189910983
 H          5.1168700304        2.1266883153       -2.4495956505
 H          7.2363897463        0.9162020599       -2.0899545361
 H          7.3622416971       -0.9037553209       -0.4294637737
 H          5.3226427991       -1.5056578165        0.8882970723
 H          2.0767040534       -1.5867930455       -1.0038909088
 H          1.7875483282       -3.2337584344        2.1932359739
 H         -0.4141588859       -3.9201046174        3.1087727863
 H         -2.4877511973       -3.2966638881        1.9357448809
 C         -2.7413090173       -1.8770823662       -0.3788959257
 H         -3.5990200661       -2.2260380249        0.2111902915
 C         -2.8746937137       -2.4175298373       -1.7879679159
 C         -3.3136805615       -3.8371414702       -1.9788655734
 C         -4.2388077721       -2.7122271111       -2.3317685903
 H         -4.4319076399       -2.5073697769       -3.3739746039
 H         -5.0848840294       -2.5251291313       -1.6863828056
 H         -3.5340958338       -4.4151753237       -1.0941360819
 H         -2.8707311010       -4.4091855221       -2.7794614089
 H         -2.1434585022       -2.0177040227       -2.4771828291
 O         -1.3138326976        0.0841271986       -2.1175469465
