  62
        -98.94952073
 C          1.5472396594        0.9491532612       -0.7009072081
 C          1.3403297385        1.7253246335        0.4645514713
 C          0.2558544870        2.7157698085        0.3904343470
 C         -0.4843425391        2.8018070471       -0.7292030112
 C         -1.6122595195        3.7697252264       -0.9441710565
 C         -2.9702395145        3.1844552009       -0.5356676743
 C         -2.9860104689        2.5518674129        0.8560702441
 H         -2.3660822582        1.6522019472        0.8653726071
 H         -4.0108463289        2.2280636799        1.0550095029
 C         -2.5155832822        3.4787101493        1.9849450207
 H         -3.1955080110        3.3659648844        2.8321117181
 H         -2.5664540893        4.5199230467        1.6625765789
 C         -1.1082097408        3.1683283478        2.4993111293
 H         -1.0200305602        2.0931945702        2.6799385444
 H         -0.9742794458        3.6770397300        3.4581828923
 C          0.0462184771        3.6008938561        1.5860001354
 H          0.9709102090        3.5386940318        2.1675974014
 H         -0.0971297487        4.6396783242        1.2784645425
 H         -3.2567188132        2.4209116866       -1.2629252100
 H         -3.7125183118        3.9843301958       -0.5775279212
 H         -1.6432743766        4.0229929604       -2.0057303277
 H         -1.4124890265        4.6743204469       -0.3725234317
 O         -0.2918577681        1.9987664319       -1.8077793189
 C          0.7200818584        1.0508464073       -1.8179979284
 O          0.7805481591        0.3743886074       -2.8645651746
 O          2.0409692597        1.6176416873        1.5051839599
 C          2.6500014181       -0.0953812897       -0.7344441630
 C          2.3906339726       -1.1223504557        0.3407986674
 C          3.3561535783       -1.5876458149        1.2231419583
 C          3.0185565142       -2.5043911086        2.2045486008
 C          1.7196144541       -2.9598220405        2.3371757786
 C          0.7493823777       -2.5097366011        1.4485733033
 C          1.0993052233       -1.6227851786        0.4455417875
 H          0.3460306432       -1.2795630031       -0.2485380226
 N         -0.5816351649       -2.9452728726        1.5322219523
 S         -1.8109789309       -1.8693247255        1.1609249985
 O         -1.4727385073       -0.5146411718        1.5267569468
 O         -2.9799723741       -2.4263810449        1.8110451082
 C         -2.0134526918       -2.0199979513       -0.6004660459
 C         -2.1726386208       -0.8826217315       -1.3653768655
 C         -2.3452097660       -1.0090237395       -2.7339296424
 C         -2.3608722872       -2.2690947275       -3.3104773504
 C         -2.2083367926       -3.4039590152       -2.5280050031
 C         -2.0339619326       -3.2826393657       -1.1590031491
 H         -1.9082963775       -4.1403277859       -0.5195211365
 H         -2.2199400430       -4.3816134698       -2.9824860492
 H         -2.4883696392       -2.3638376876       -4.3772672697
 H         -2.4475368343       -0.1236306944       -3.3408018327
 H         -2.1368265207        0.0812179381       -0.8819917702
 H         -0.8001480606       -3.5097594890        2.3402635664
 H          1.4542040829       -3.6521935160        3.1215587859
 H          3.7757125622       -2.8553032072        2.8893780743
 H          4.3681645778       -1.2240799305        1.1527187082
 H          2.5654422035       -0.5947977177       -1.7110062114
 C          4.0107142074        0.5607817844       -0.6355291401
 C          5.2078101019       -0.0874963219       -1.2617129035
 C          4.6207051375        1.1490985465       -1.8710529167
 H          5.1647647344        2.0776594553       -1.7853595859
 H          4.0636565190        1.0531904485       -2.7918420475
 H          6.1600614564       -0.0063323147       -0.7596283873
 H          5.0572079741       -1.0246359439       -1.7757745863
 H          4.1454484863        1.1005954599        0.2945967059
