  62
        -98.94365161
 C         -2.6380200796        0.1293434518        0.1990888970
 C         -2.1643242993        0.9133269858       -0.8822627565
 C         -1.7526193187        2.2870616148       -0.5481108484
 C         -1.8140581811        2.7110421199        0.7258172337
 C         -1.3878574529        4.0679900808        1.2059307697
 C          0.0811288560        4.0760047406        1.6482812434
 C          1.0432869756        3.4637385684        0.6293749813
 H          2.0537603672        3.5812605328        1.0287907662
 H          0.8590387792        2.3888225222        0.5557274045
 C          0.9732426787        4.0898320790       -0.7701747004
 H          0.4975029199        5.0704783379       -0.7147940770
 H          1.9916910698        4.2407419723       -1.1345192185
 C          0.2537658500        3.2332879097       -1.8141216826
 H          0.4694894022        3.6498729341       -2.8023711340
 H          0.6562077746        2.2168561980       -1.7936482530
 C         -1.2723284215        3.1551460012       -1.6770168970
 H         -1.6869841311        4.1623984359       -1.5898323395
 H         -1.6630366454        2.6991718027       -2.5916635790
 H          0.1663158948        3.5080320864        2.5775748103
 H          0.3724126854        5.1089641168        1.8501137009
 H         -1.5412601620        4.7920677315        0.4078438695
 H         -2.0147211142        4.3401053830        2.0572272146
 O         -2.2598095189        1.9278186071        1.7414780260
 C         -2.6602737543        0.6257515387        1.5052588316
 O         -3.0350421985        0.0147917091        2.5283970403
 H         -0.4964796092       -0.9949635380       -0.7795463976
 C         -0.6262822533       -1.8970384458       -0.2017188059
 C         -1.8753619848       -2.2378720329        0.2920762298
 C         -2.0060548231       -3.4213480556        1.0103173248
 C         -0.9073202749       -4.2286174259        1.2433805722
 C          0.3475785571       -3.8561396258        0.7955268781
 C          0.4864241880       -2.6783668315        0.0711503887
 N          1.7396092325       -2.2429447235       -0.3901468916
 S          2.0304741957       -0.5764290199       -0.2906578760
 O          1.4124540228       -0.0411620107        0.9008077226
 O          1.6656472033        0.0313361828       -1.5441657734
 C          3.8064233701       -0.5637156553       -0.1258883894
 C          4.5811440116       -0.6795114186       -1.2647086401
 C          5.9606084371       -0.7110549923       -1.1357817907
 C          6.5390218376       -0.6277782050        0.1222193070
 C          5.7486760431       -0.5086373442        1.2555481812
 C          4.3681690369       -0.4776136755        1.1336859661
 H          3.7127206466       -0.3779858506        1.9842123397
 H          6.2007860407       -0.4398394916        2.2318350941
 H          7.6127608346       -0.6529115538        0.2200779808
 H          6.5780764026       -0.7999321032       -2.0149163059
 H          4.0855417699       -0.7316780452       -2.2201307787
 H          2.5081844512       -2.7823493108       -0.0149997555
 H          1.2121127137       -4.4668842446        1.0071938227
 H         -1.0234153833       -5.1440366869        1.8033609826
 H         -2.9727368111       -3.6956229890        1.4052509771
 C         -3.0611933951       -1.3254980220        0.0725503275
 H         -3.7687825736       -1.5057762576        0.8951384669
 C         -3.7521457362       -1.6672766881       -1.2328495971
 C         -4.7471457747       -2.7867432533       -1.2676472587
 C         -5.2107542567       -1.3673098234       -1.3944554993
 H         -5.5578747361       -1.0150379094       -2.3538010710
 H         -5.7227318497       -0.9205929816       -0.5543142586
 H         -4.7772527659       -3.4176307374       -2.1424985036
 H         -4.9574502824       -3.3038422451       -0.3439869549
 H         -3.1184644994       -1.5277063868       -2.0987653249
 O         -2.0885511666        0.5167565990       -2.0759651130
