  62
        -98.93962720
 C          0.9899095421        1.7663115034        0.4104761162
 C          1.4210053492        0.6165880981        1.1133436523
 C          2.7172684185        0.0411366197        0.7098822336
 C          3.3951395823        0.6130323135       -0.3005562679
 C          4.7148658495        0.1935963189       -0.8892374952
 C          4.5149853785       -0.7690130107       -2.0719493430
 C          4.4435978828       -2.2466712077       -1.6915837123
 H          4.1937223694       -2.8034098413       -2.5975752961
 H          5.4303939966       -2.5802431588       -1.3636178342
 C          3.4215403016       -2.5899014478       -0.6054869471
 H          3.2071795523       -3.6571501102       -0.6783211200
 H          2.4888632725       -2.0557591490       -0.7954547170
 C          3.9180567576       -2.2772379487        0.8134937999
 H          4.9844933255       -2.0565417769        0.7828114969
 H          3.8065628305       -3.1624011742        1.4430642696
 C          3.1734439045       -1.1407126958        1.5224149562
 H          2.2567624671       -1.5324243977        1.9739500277
 H          3.7918719360       -0.7705215294        2.3477545472
 H          5.3432525089       -0.6390738786       -2.7716515558
 H          3.5992736795       -0.4765841400       -2.5921660968
 H          5.3563162615       -0.2431259944       -0.1298109984
 H          5.1860386740        1.1062311861       -1.2604975361
 O          2.9153369910        1.6879943584       -0.9864392620
 C          1.7120568833        2.2889555426       -0.6619514371
 O          1.4148724220        3.2575504502       -1.3861016954
 O          0.7543189016        0.0937681693        2.0468156755
 C         -0.3268960118        2.4093032492        0.8131290260
 C         -1.3476809162        2.1344831231       -0.2629498024
 C         -1.8278377619        3.1018193990       -1.1355013163
 C         -2.7364536068        2.7596588350       -2.1220758052
 C         -3.1978080564        1.4618138278       -2.2426841856
 C         -2.7260629772        0.4863246241       -1.3705718740
 C         -1.7995541782        0.8267932107       -0.3990382130
 H         -1.4256358577        0.0681334934        0.2733540074
 N         -3.1642466962       -0.8430605706       -1.4666862076
 S         -3.4721299097       -1.7090320620       -0.0655472529
 O         -4.3827667051       -2.7544529834       -0.4858640331
 O         -3.9468320097       -0.8498591125        0.9941549997
 C         -1.9186278288       -2.4564298187        0.3695038001
 C         -1.4735301731       -2.3989992346        1.6741666256
 C         -0.2898202185       -3.0375350294        2.0069474814
 C          0.4222868712       -3.7188270426        1.0333390984
 C         -0.0374580400       -3.7654075144       -0.2742416795
 C         -1.2210590582       -3.1315647503       -0.6127176660
 H         -1.6135733570       -3.1489942716       -1.6159335221
 H          0.5230511092       -4.2932018908       -1.0290759058
 H          1.3438454589       -4.2142231097        1.2947669401
 H          0.0718712734       -2.9906075865        3.0215536197
 H         -2.0494759133       -1.8469246765        2.3997782983
 H         -3.8730886575       -1.0060895251       -2.1672260843
 H         -3.9155730326        1.2010360650       -3.0058278554
 H         -3.0977596056        3.5174832365       -2.8008204334
 H         -1.4800129873        4.1179776294       -1.0529110348
 H         -0.6475265365        1.8732390275        1.7179082410
 C         -0.1621420364        3.8752527402        1.1497338479
 C         -1.2245814760        4.5700180039        1.9461475696
 C          0.1052359186        4.2723851207        2.5692741173
 H          0.7829599149        5.0919626712        2.7556454792
 H          0.1594488426        3.4850399880        3.3069624463
 H         -1.4621519861        5.5954488231        1.7074818539
 H         -2.0751002517        3.9827795397        2.2590124379
 H          0.3437716234        4.4377465562        0.3744987598
