  62
        -98.94597381
 C         -1.2018469799       -0.9559867940       -0.4632218982
 C         -2.3151859585       -1.2084796883        0.3796562282
 C         -3.0859930075       -0.0401936499        0.8141916123
 C         -2.6879421117        1.1910381205        0.4474587104
 C         -3.3424029659        2.4879349003        0.8405462783
 C         -4.5358836826        2.8798343459       -0.0416129722
 C         -5.8012411988        2.0476276393        0.1698083397
 H         -6.0489688070        2.0296766699        1.2315984644
 H         -6.6135620940        2.5636105919       -0.3458555020
 C         -5.7109121836        0.6113748718       -0.3643819887
 H         -4.8723078286        0.5337653235       -1.0599990148
 H         -6.6170309753        0.3740901935       -0.9262511227
 C         -5.5553338428       -0.4583619841        0.7165503099
 H         -6.4489753217       -0.4785515039        1.3442530515
 H         -5.4659919887       -1.4309193758        0.2260798469
 C         -4.3290248564       -0.2706903305        1.6197372517
 H         -4.4926122153        0.5561858519        2.3110097537
 H         -4.1839854004       -1.1861088252        2.1988332087
 H         -4.2303760677        2.8192952771       -1.0885909405
 H         -4.7726732323        3.9237782246        0.1765855874
 H         -3.6585222684        2.4354944772        1.8830302244
 H         -2.5765381794        3.2616090109        0.7512601476
 O         -1.5997681497        1.3989297520       -0.3357125889
 C         -0.8367219533        0.3432041483       -0.8188346817
 O          0.1078678656        0.7137243049       -1.5428298813
 H          1.5434175225       -0.4226264292       -0.1993374757
 C          1.6568020150       -1.3705547178        0.3006118977
 C          0.7559779918       -2.3949065715        0.0478358189
 C          0.9278794914       -3.6112909421        0.6976887326
 C          1.9691613828       -3.7892471066        1.5915480231
 C          2.8393581226       -2.7516576176        1.8734036319
 C          2.6739060742       -1.5313060611        1.2282606262
 N          3.5240337451       -0.4469597171        1.4902889529
 S          2.8793179489        1.1009684163        1.5285107928
 O          3.8120285947        1.8516978794        2.3479807383
 O          1.5100320405        1.0992237417        1.9925061804
 C          3.0034466514        1.7038983815       -0.1396593671
 C          2.1161785818        2.6739939768       -0.5569658891
 C          2.2448703056        3.1951306682       -1.8340841125
 C          3.2531887230        2.7379804248       -2.6666156735
 C          4.1376688948        1.7631645696       -2.2313482951
 C          4.0173841686        1.2410667213       -0.9539837797
 H          4.6825496852        0.4776530981       -0.5857561640
 H          4.9177076122        1.4057023580       -2.8844393018
 H          3.3459162666        3.1407425544       -3.6631296125
 H          1.5497497400        3.9453926738       -2.1754148012
 H          1.3323539325        2.9877975315        0.1145106655
 H          4.1918084293       -0.5925743007        2.2337016540
 H          3.6349100723       -2.8790271759        2.5917131232
 H          2.0927260764       -4.7386782983        2.0900525578
 H          0.2272914237       -4.4125980653        0.5148871583
 C         -0.3985880532       -2.1700093484       -0.8998523674
 H         -1.0837226067       -3.0230693934       -0.7980183960
 C          0.0904960315       -2.1140151174       -2.3333957579
 C          0.4017245222       -3.3951581318       -3.0454024112
 C         -0.8043079647       -2.5949684701       -3.4344238251
 H         -0.7942634346       -2.0628907926       -4.3735677254
 H         -1.7781413838       -2.9725724239       -3.1578974391
 H          1.2440149898       -3.4162370693       -3.7193020477
 H          0.2441193748       -4.3182909526       -2.5086435043
 H          0.7165168418       -1.2558900716       -2.5391095274
 O         -2.6529105426       -2.3665525397        0.7478500107
