  62
        -98.94281012
 C          1.8164097474        0.8609849672        0.2903847217
 C          3.1636618087        1.1779795522        0.6011184711
 C          4.0873507997        0.0423128417        0.7201922848
 C          3.6107052230       -1.2080841316        0.5824157290
 C          4.4469361593       -2.4534434328        0.6216477074
 C          4.9343750580       -2.8392837014       -0.7820753158
 C          5.5637473613       -1.6824768216       -1.5585463429
 H          5.8964134811       -2.0792942814       -2.5201906824
 H          4.7959621782       -0.9344210482       -1.7700131412
 C          6.7455601972       -1.0081566950       -0.8477277597
 H          7.5492992019       -0.8574289478       -1.5714916844
 H          7.1317802579       -1.6645272977       -0.0670573682
 C          6.4265896163        0.3615842640       -0.2455014667
 H          7.3698389980        0.8376873258        0.0352208027
 H          5.9551959511        0.9939545931       -1.0024829225
 C          5.5312690697        0.3501780709        0.9999120902
 H          5.9380200706       -0.3434410832        1.7385815900
 H          5.5451896382        1.3566409703        1.4285539943
 H          5.6585078893       -3.6501929564       -0.6851649922
 H          4.0819458967       -3.2113885638       -1.3551781060
 H          3.8369836790       -3.2654671958        1.0207554323
 H          5.2975294053       -2.2927220437        1.2812352969
 O          2.3023239819       -1.4768594968        0.3474677687
 C          1.3716672485       -0.4571270423        0.1883406946
 O          0.2146906162       -0.8634542466       -0.0224436809
 O          3.5720131624        2.3569671387        0.7760921550
 C          0.8446332389        2.0142912154        0.1238153493
 C         -0.4334872442        1.7523256949        0.8801579485
 C         -0.3654011699        1.5713238588        2.2600320647
 C         -1.5071633913        1.3396289274        3.0007476145
 C         -2.7444153109        1.2882599605        2.3819419365
 C         -2.8255037166        1.4721820241        1.0075420378
 C         -1.6744278689        1.7054821090        0.2650830231
 H         -1.7667888220        1.8185727794       -0.8016347062
 N         -4.0754086913        1.4707755618        0.3620804908
 S         -4.3838062554        0.4974920959       -0.9628842327
 O         -3.4352121253        0.7705847455       -2.0101068285
 O         -5.7732508942        0.7505653943       -1.2793970602
 C         -4.2186568263       -1.1731074494       -0.3585702465
 C         -5.3681066197       -1.8983093801       -0.1071381108
 C         -5.2568456893       -3.1781343736        0.4103766485
 C         -4.0021139377       -3.7062687845        0.6759284022
 C         -2.8601835710       -2.9626542508        0.4227515395
 C         -2.9617846396       -1.6819855787       -0.0999927993
 H         -2.0782885241       -1.0962065063       -0.2985425649
 H         -1.8789135276       -3.3606672036        0.6275239454
 H         -3.9125768277       -4.7017838933        1.0817661194
 H         -6.1447451171       -3.7574377114        0.6067269555
 H         -6.3212459554       -1.4468235535       -0.3307467875
 H         -4.8596675869        1.4197281981        0.9972570059
 H         -3.6396021947        1.1104170153        2.9586052684
 H         -1.4360395046        1.1966370142        4.0684606607
 H          0.6019467602        1.6098844222        2.7428955682
 H          1.3499418493        2.8683841413        0.6065776931
 C          0.6079786922        2.4154831179       -1.3246222716
 C          1.6524638809        2.1942387006       -2.3763725576
 C          0.3792029318        1.4059735247       -2.4075430130
 H         -0.3550799247        1.6269464209       -3.1688014402
 H          0.4105320884        0.3630404445       -2.1337011462
 H          1.8037763830        2.9628989810       -3.1192713168
 H          2.5596767400        1.6857927352       -2.0831669297
 H          0.0440877523        3.3406904545       -1.4008576707
