  62
        -98.93773412
 C          1.9196621599        0.9395828602        0.0053870805
 C          2.4163120500       -0.3764508398        0.1526258602
 C          3.8382781399       -0.4970020997        0.5233487004
 C          4.5714338998        0.6145921503        0.7054728308
 C          6.0173063897        0.7315291503        1.1196786611
 C          7.0196665999       -0.2398254394        0.4823723010
 C          6.7064325802       -0.6362575890       -0.9677336592
 H          7.5970139903       -0.4795157788       -1.5791765290
 H          5.9187732102        0.0034801710       -1.3694289791
 C          6.2922270004       -2.1029095490       -1.1088716997
 H          6.9497875103       -2.7144207591       -0.4870970297
 H          6.4425247506       -2.4127256987       -2.1458991597
 C          4.8384959503       -2.4102263293       -0.7514446200
 H          4.7056558404       -3.4944592493       -0.7834940703
 H          4.1726373504       -1.9851790191       -1.5075765400
 C          4.3710844800       -1.8976034897        0.6206567301
 H          5.1623460899       -1.9782642299        1.3620599202
 H          3.5285149101       -2.5169998299        0.9407059097
 H          7.0902082199       -1.1414219796        1.0891300107
 H          7.9970030598        0.2439638507        0.5245544313
 H          6.2989861596        1.7589131004        0.8765721114
 H          6.0676079995        0.6335590500        2.2080457711
 O          4.0460100297        1.8646281203        0.5602633711
 C          2.7225220397        2.0605510802        0.2083364809
 O          2.3850840696        3.2581671002        0.1147167112
 H         -1.5525537698       -0.6989231299       -0.7786952506
 C         -1.4154636700       -0.4140687602        0.2503046495
 C         -0.4418171702        0.5030063098        0.6109584899
 C         -0.2926653605        0.8235137694        1.9587931301
 C         -1.0833106406        0.2254667791        2.9194959298
 C         -2.0489738504       -0.6975517709        2.5562476193
 C         -2.2110380201       -1.0202377006        1.2150201992
 N         -3.1699750900       -1.9684146905        0.8254751688
 S         -4.1510622098       -1.7051018703       -0.5000320013
 O         -5.2182596297       -2.6703936904       -0.3550612718
 O         -3.3875956696       -1.7778839498       -1.7187387912
 C         -4.7875440700       -0.0570517704       -0.2586914310
 C         -5.8245787402        0.1167498392        0.6374199289
 C         -6.2915701103        1.3974096991        0.8828295792
 C         -5.7107433103        2.4786523794        0.2371408196
 C         -4.6709770102        2.2871972397       -0.6592433803
 C         -4.2014547100        1.0076661899       -0.9117008805
 H         -3.3983980499        0.8194662401       -1.6047128605
 H         -4.2218277102        3.1287497899       -1.1622977299
 H         -6.0715988805        3.4764094293        0.4310899498
 H         -7.1030520705        1.5496425588        1.5760442691
 H         -6.2562222402       -0.7510526509        1.1092281786
 H         -3.6964306501       -2.3668405408        1.5889698086
 H         -2.6616772005       -1.1744783112        3.3060816391
 H         -0.9495948008        0.4790025988        3.9603521798
 H          0.4654966294        1.5418194394        2.2410156504
 C          0.4709245099        1.1691884102       -0.3889882497
 H          0.3117028198        2.2557099201       -0.3279668394
 C          0.2447903802        0.7254884006       -1.8186803499
 C         -0.7933479397        1.4009400007       -2.6613500599
 C          0.6617767303        1.6350818209       -2.9336453695
 H          1.1006724205        1.1990079912       -3.8185682296
 H          1.0865700201        2.5903677409       -2.6605048792
 H         -1.3513982299        2.2078122405       -2.2103734497
 H         -1.3589752196        0.8025403008       -3.3605916101
 H          0.4056863003       -0.3374002194       -1.9606544202
 O          1.7103742201       -1.4059112498       -0.0068472802
