  62
        -98.94139767
 C          2.3382755552        1.1063480928       -0.5024598923
 C          3.6590189324        1.0215439717        0.0051922722
 C          4.4399660038       -0.1422690860       -0.4257350169
 C          3.8861241288       -1.0476156816       -1.2526844353
 C          4.5578763556       -2.2814545869       -1.7914942133
 C          4.5089329390       -3.4835842999       -0.8383781357
 C          5.4240078936       -3.3835827629        0.3827672306
 H          5.4548781178       -4.3739839585        0.8412483426
 H          6.4368185811       -3.1433280379        0.0578786462
 C          4.9648134329       -2.3669755286        1.4374812427
 H          3.9140797624       -2.1168061997        1.2705506480
 H          5.0299640700       -2.8178221648        2.4304003822
 C          5.7828066173       -1.0758899921        1.4716867201
 H          5.3483004902       -0.4158775723        2.2267701536
 H          6.8089605816       -1.3003640286        1.7709406853
 C          5.8173312330       -0.3145807042        0.1400877513
 H          6.4596069644       -0.8315420367       -0.5723371166
 H          6.2276690279        0.6810515214        0.3252744055
 H          3.4767444749       -3.6268648098       -0.5094806332
 H          4.8001099548       -4.3664239185       -1.4122441025
 H          5.5948265596       -2.0553047301       -2.0411979081
 H          4.0284663273       -2.5481631566       -2.7086653401
 O          2.6164068934       -0.9285323996       -1.7224343535
 C          1.8045102123        0.1331256703       -1.3472580951
 O          0.6611840424        0.0934786135       -1.8418199748
 O          4.1613246901        1.8804482977        0.7775915627
 C          1.4725733281        2.2736795008       -0.0570663267
 C          0.3741331952        1.7247271596        0.8190573895
 C          0.6748264929        1.3648595296        2.1303146788
 C         -0.2830192842        0.7855868282        2.9404189663
 C         -1.5594150167        0.5471904401        2.4600948638
 C         -1.8657892081        0.8941159915        1.1517847847
 C         -0.9053806437        1.4895042984        0.3430809246
 H         -1.1517921807        1.7387123511       -0.6767700008
 N         -3.1615474741        0.6604835844        0.6486044882
 S         -3.8482140137       -0.8474202186        0.9820810565
 O         -4.3770672802       -0.8169585608        2.3236687707
 O         -2.9049005654       -1.9076403201        0.7029226931
 C         -5.1888189587       -0.8725286754       -0.1910722267
 C         -6.4040729278       -0.3212482205        0.1678490621
 C         -7.4354886683       -0.3151062522       -0.7576845252
 C         -7.2351589070       -0.8559443049       -2.0190180552
 C         -6.0096609850       -1.4059704776       -2.3644787785
 C         -4.9732265333       -1.4140466108       -1.4442289572
 H         -4.0061677985       -1.8369607372       -1.6678566359
 H         -5.8565176931       -1.8273052865       -3.3450948590
 H         -8.0391427241       -0.8513926928       -2.7379338628
 H         -8.3902756804        0.1097578672       -0.4930791555
 H         -6.5143889784        0.0792104300        1.1619344585
 H         -3.2050493573        0.8464005676       -0.3450020908
 H         -2.3120347884        0.0802785103        3.0746393508
 H         -0.0355584609        0.5104330731        3.9549681389
 H          1.6772794503        1.5317868292        2.5001076269
 H          2.1267254808        2.8987652309        0.5656837759
 C          0.9805388178        3.0970194260       -1.2279205170
 C          0.4155164629        4.4627554241       -0.9795778444
 C          1.7512706390        4.3132606166       -1.6417587687
 H          1.8337846456        4.5355404723       -2.6950868320
 H          2.6356355608        4.5610662584       -1.0734164638
 H         -0.4204930717        4.7923654101       -1.5771818008
 H          0.3914461679        4.8115226443        0.0416662558
 H          0.5412761053        2.4995500450       -2.0176165070
