  62
        -98.94360181
 C         -1.5498517966       -1.4590795268        0.0320504855
 C         -2.1109002705       -0.5471236177        0.9583965827
 C         -3.1248134295        0.3667106347        0.4211154286
 C         -3.4660939461        0.2957066751       -0.8782844146
 C         -4.4789694862        1.1647464854       -1.5732942689
 C         -3.9209949049        2.5184478226       -2.0352349143
 C         -3.6485764699        3.5292737578       -0.9198893323
 H         -3.4729595988        4.4940326237       -1.4001506749
 H         -4.5397532995        3.6324352327       -0.3001015568
 C         -2.4397677180        3.1919961406       -0.0349569431
 H         -1.8110960124        2.4558705292       -0.5423469860
 H         -1.8307887522        4.0880096789        0.1045853637
 C         -2.7993422419        2.6630466113        1.3536454060
 H         -3.3077314441        3.4442053141        1.9227248319
 H         -1.8726549132        2.4089232259        1.8729832204
 C         -3.6846022273        1.4106091684        1.3394255276
 H         -3.7016393117        0.9914550289        2.3482647516
 H         -4.7028654566        1.6684065056        1.0500525027
 H         -3.0024241122        2.3427882475       -2.6006975498
 H         -4.6517826007        2.9551062044       -2.7199507564
 H         -4.8127272221        0.6118344872       -2.4540123870
 H         -5.3364333098        1.3264257010       -0.9196171424
 O         -2.9162051236       -0.6080308550       -1.7335153079
 C         -1.9326981969       -1.4931375303       -1.3087661447
 O         -1.4900938522       -2.2357141602       -2.2054739590
 H          0.4246065662       -0.1173785431       -0.5953221848
 C          1.1550166147       -0.9137645565       -0.6737839283
 C          0.8454105214       -2.1731164140       -0.1780699511
 C          1.8079974879       -3.1716643775       -0.2821448992
 C          3.0360270227       -2.9152481358       -0.8671472137
 C          3.3343235640       -1.6599512559       -1.3664039031
 C          2.3788807645       -0.6589403897       -1.2741056259
 N          2.6920263973        0.6368254714       -1.7576210623
 S          3.6316776280        1.5363431664       -0.6984087502
 O          3.7412318259        2.8551202812       -1.2783875185
 O          4.8637716241        0.8268466822       -0.4720510450
 C          2.6652741062        1.6015251530        0.7984037151
 C          1.8282200439        2.6795111391        1.0057918475
 C          1.0010813537        2.6820539336        2.1172400596
 C          1.0071978443        1.6001848648        2.9844183651
 C          1.8510597676        0.5238634712        2.7596571617
 C          2.6914634340        0.5208244934        1.6579044167
 H          3.3653634992       -0.2958251846        1.4545590365
 H          1.8474590296       -0.3170851663        3.4341164074
 H          0.3451597613        1.5888771179        3.8357781863
 H          0.3497542500        3.5224387539        2.2986314726
 H          1.8479932793        3.4960711739        0.3014420957
 H          1.8703648902        1.1763490024       -1.9932522755
 H          4.2893642534       -1.4355841721       -1.8120848007
 H          3.7701837133       -3.7032753708       -0.9360672146
 H          1.5938979368       -4.1563934844        0.1005042275
 C         -0.4747491797       -2.4091688802        0.5157437030
 H         -0.3369264165       -2.1673021250        1.5813965483
 C         -0.9439996658       -3.8471331841        0.4031773441
 C         -0.5777073916       -4.8568790049        1.4487161541
 C         -1.9823232793       -4.3431358266        1.3634772805
 H         -2.7555198693       -4.9999421683        0.9942685634
 H         -2.3218459083       -3.6540227303        2.1230614355
 H          0.0282664979       -4.5252027606        2.2783926198
 H         -0.3861151428       -5.8730976448        1.1382023330
 H         -1.0175079535       -4.1788117085       -0.6264269512
 O         -1.7749572872       -0.4964118234        2.1706448516
