  62
        -98.93901435
 C         -1.5019627857       -1.3175113454       -0.7188016139
 C         -2.7265213024       -1.0482751037       -0.0590000375
 C         -3.3718993359        0.2522897434       -0.3148664139
 C         -2.7779153332        1.1074021201       -1.1673646009
 C         -3.2058192442        2.5000819959       -1.5465587113
 C         -2.8795546022        3.5257997808       -0.4500246962
 C         -3.2379007498        3.0836208064        0.9662338979
 H         -2.6920901875        2.1668564616        1.2001470308
 H         -2.8746224198        3.8525378058        1.6538234417
 C         -4.7282828565        2.8822048227        1.2325556781
 H         -5.2556656903        3.8166710569        1.0281483841
 H         -4.8378360145        2.6652268397        2.2981982972
 C         -5.4088811209        1.7579008846        0.4479373967
 H         -5.6200673511        2.0636647031       -0.5732001149
 H         -6.3766125348        1.5717025908        0.9228394714
 C         -4.6587318211        0.4297157595        0.4544779160
 H         -4.4304926318        0.1519450473        1.4899661124
 H         -5.3330953008       -0.3539849475        0.0882816719
 H         -1.8023706432        3.7118104008       -0.4706973071
 H         -3.3919029268        4.4605188984       -0.6852610631
 H         -2.6480735497        2.7661219427       -2.4472760672
 H         -4.2633854893        2.5170107601       -1.7922964828
 O         -1.6129599531        0.8008573980       -1.7987897514
 C         -0.9288032383       -0.3793750518       -1.5751089511
 O          0.1422734759       -0.4545913169       -2.2107201131
 O         -3.2694822734       -1.8712238659        0.7290907553
 C         -0.8232579565       -2.6313702046       -0.3689608694
 C          0.0778453422       -2.4255965814        0.8271569522
 C         -0.0524016882       -3.2115472707        1.9651521299
 C          0.7366426106       -2.9722037682        3.0764754534
 C          1.6414797232       -1.9271388964        3.0823342429
 C          1.7811301090       -1.1348774479        1.9465139846
 C          1.0282118320       -1.4138510956        0.8166683148
 H          1.1472808068       -0.8044268322       -0.0631215494
 N          2.6813345790       -0.0609702191        1.9361589840
 S          2.3331224751        1.4007870911        1.1805162919
 O          2.8309138709        2.4069712253        2.0990918868
 O          0.9400873068        1.5027632038        0.8222033249
 C          3.3997968845        1.3829498763       -0.2454220512
 C          4.7343754175        1.6772545133       -0.0339811739
 C          5.6074827264        1.6592211698       -1.1081311652
 C          5.1347550080        1.3470245400       -2.3743843243
 C          3.7945602678        1.0550244162       -2.5699847628
 C          2.9137622701        1.0712542420       -1.4979617660
 H          1.8683554950        0.8390755675       -1.6340447378
 H          3.4190784649        0.8095357866       -3.5506942287
 H          5.8125069171        1.3324268354       -3.2134283733
 H          6.6501144433        1.8878006385       -0.9568966750
 H          5.0548150406        1.9292239438        0.9632714369
 H          3.1435496154        0.0994749174        2.8194596191
 H          2.2325544971       -1.7166621749        3.9609500651
 H          0.6282900734       -3.5889110381        3.9558461437
 H         -0.7929520096       -3.9973381483        1.9845264113
 H         -1.6340156230       -3.3057519423       -0.0594974710
 C         -0.0687727371       -3.2808006429       -1.5104960048
 C          0.1709106072       -4.7595152138       -1.4738225353
 C         -0.8014436863       -4.1816561837       -2.4569787543
 H         -0.5319586610       -4.1565563114       -3.5019145197
 H         -1.8563871725       -4.3368018479       -2.2828230042
 H          1.1124531526       -5.1358557184       -1.8426390183
 H         -0.2256935093       -5.3115433334       -0.6353401857
 H          0.7098068315       -2.6539591066       -1.9239670531
