  62
        -98.93191874
 C          2.4118278854       -1.2529468913       -0.4424607269
 C          2.3203362546        0.0611334157        0.0791613066
 C          3.4766604712        0.9361587458       -0.1800622260
 C          4.5142447520        0.4840041856       -0.9045968600
 C          5.7438131117        1.2567508602       -1.3034392249
 C          6.6722892718        1.7032971887       -0.1576196597
 C          6.3997112717        3.1203603201        0.3621230083
 H          7.3548021666        3.6108194593        0.5609254897
 H          5.9109575977        3.6950512072       -0.4255539182
 C          5.5741899857        3.2120247667        1.6490905734
 H          5.2463421539        4.2475513158        1.7630193688
 H          6.2148359580        2.9747242385        2.5015878893
 C          4.3532617927        2.2951295574        1.7246580427
 H          4.6770345888        1.2692955139        1.9172315604
 H          3.7538099366        2.5955000435        2.5864586800
 C          3.4712221627        2.2935380272        0.4608500818
 H          2.4344178244        2.5066979007        0.7288384445
 H          3.8072622694        3.0520196161       -0.2444108440
 H          7.6908304979        1.6745217721       -0.5480613368
 H          6.6192483753        0.9811367623        0.6567867051
 H          6.2972819211        0.5947674571       -1.9727004008
 H          5.4351115329        2.1314124710       -1.8805779002
 O          4.5446257916       -0.7752150785       -1.4221806575
 C          3.5080486884       -1.6661465397       -1.2049456675
 O          3.6724296146       -2.7792928629       -1.7436703385
 H         -0.7630808538       -1.5823691210        1.4295403478
 C         -0.9769970014       -1.3615898384        0.3954029925
 C         -0.0326230833       -1.6434868030       -0.5776247173
 C         -0.3225567804       -1.3214036463       -1.9004844447
 C         -1.5235856723       -0.7262350502       -2.2351821462
 C         -2.4590104586       -0.4326395153       -1.2582355594
 C         -2.1798345792       -0.7494490612        0.0638763286
 N         -3.1019739955       -0.4247392665        1.0674702338
 S         -4.7419905159       -0.6195883054        0.8234195417
 O         -5.3121292089       -0.6872870867        2.1515109550
 O         -5.0235586333       -1.7364321845       -0.0490794577
 C         -5.2520276890        0.9017171929        0.0507095701
 C         -6.0577605640        0.8649572224       -1.0703412138
 C         -6.4601750575        2.0597066689       -1.6468052088
 C         -6.0527283751        3.2639970072       -1.0940715244
 C         -5.2449994791        3.2838563552        0.0332329104
 C         -4.8405165313        2.0931096688        0.6150883099
 H         -4.2114926008        2.0686581432        1.4893602832
 H         -4.9280610084        4.2221789346        0.4593931436
 H         -6.3653162787        4.1927565230       -1.5447107471
 H         -7.0876781953        2.0463395630       -2.5234825633
 H         -6.3440790281       -0.0946561104       -1.4705958122
 H         -2.8161337958       -0.6770390800        2.0011120975
 H         -3.3958186005        0.0358371253       -1.5122787224
 H         -1.7334785110       -0.4819834454       -3.2656109411
 H          0.4132909458       -1.5389416153       -2.6631599347
 C          1.3005166875       -2.2737651952       -0.2599389206
 H          1.4970978384       -3.0442045841       -1.0233243826
 C          1.3212036031       -2.9864055194        1.0843957362
 C          2.6219078611       -3.3167736011        1.7520628800
 C          1.7026938173       -2.3038143366        2.3621823487
 H          1.1718849936       -2.5748365936        3.2636960859
 H          1.9764617608       -1.2619350734        2.3144505108
 H          2.7243274471       -4.2782437206        2.2323326534
 H          3.5271384926       -2.9678809604        1.2764257304
 H          0.5423943301       -3.7409696583        1.1495538112
 O          1.3367771643        0.5014553503        0.7266059544
