  62
        -98.94047678
 C         -1.5079085116       -1.5792164064       -0.2011517965
 C         -2.6604109099       -1.3282721324        0.5838223546
 C         -3.5653478037       -0.2665697426        0.1121765495
 C         -3.2567104667        0.4001226433       -1.0134206299
 C         -4.0317528771        1.5176640687       -1.6566165264
 C         -3.5096552924        2.8925997145       -1.2082582882
 C         -4.1139361692        3.4214217134        0.0918031141
 H         -3.5589365430        4.3211966126        0.3672437107
 H         -5.1484402701        3.7209504014       -0.0885516349
 C         -4.0871916102        2.4423981344        1.2685331345
 H         -3.1243183819        1.9292584748        1.3013077021
 H         -4.1768703362        3.0214275705        2.1895699852
 C         -5.2265977859        1.4132447564        1.2170065278
 H         -5.9517067278        1.7221684268        0.4641526964
 H         -5.7559579934        1.4115009275        2.1721068712
 C         -4.7933700902       -0.0360264180        0.9497130961
 H         -4.5762928365       -0.5323392499        1.9007519005
 H         -5.6301792559       -0.5811704471        0.5000428821
 H         -2.4253546177        2.8203431902       -1.1045344433
 H         -3.7153658780        3.6186931900       -1.9974389526
 H         -3.8751379366        1.4226447576       -2.7334909345
 H         -5.0928751036        1.4139491812       -1.4492938984
 O         -2.1246175812        0.1461742072       -1.7243772064
 C         -1.2236693845       -0.8371969043       -1.3468059242
 O         -0.2444741383       -0.9410372764       -2.1098371592
 H          1.7481961302       -2.0336615272       -1.0650289110
 C          1.7733215981       -1.7367960001       -0.0286774020
 C          0.6917100678       -2.0122317135        0.7942290106
 C          0.7363716290       -1.5866662241        2.1187647545
 C          1.8382880961       -0.9094746262        2.6077447938
 C          2.9100365721       -0.6236620921        1.7801465434
 C          2.8659569335       -1.0300245573        0.4532903435
 N          3.9250641436       -0.6805978653       -0.4085370876
 S          4.3247040297        0.9483409235       -0.4152198724
 O          4.8214290413        1.2234993983       -1.7450411305
 O          5.2466155307        1.2154796004        0.6615922478
 C          2.7899234766        1.8104633202       -0.1163287902
 C          2.6512266907        2.5998617220        1.0074359161
 C          1.4357243930        3.2203437382        1.2456636741
 C          0.3827631103        3.0396688226        0.3620488814
 C          0.5416670911        2.2506774111       -0.7662711382
 C          1.7537877216        1.6269278590       -1.0094221694
 H          1.8841592259        0.9967597101       -1.8747587037
 H         -0.2718677373        2.0945476574       -1.4576802377
 H         -0.5670688503        3.5148875244        0.5543496252
 H          1.3093799803        3.8364327508        2.1212914669
 H          3.4929076875        2.7079701113        1.6720348029
 H          3.7872220928       -1.0087262016       -1.3541632724
 H          3.7726314507       -0.0835444774        2.1355219894
 H          1.8613647904       -0.5933842465        3.6393144051
 H         -0.1130488639       -1.7824368205        2.7576967592
 C         -0.5580503103       -2.6710210454        0.2663638484
 H         -1.0684282152       -3.1561265563        1.1087559932
 C         -0.2950907133       -3.7093671895       -0.8039677539
 C          0.3418535834       -5.0094553768       -0.4166290735
 C         -1.1025598648       -4.9712353928       -0.8134432195
 H         -1.3881844976       -5.3925885894       -1.7657114594
 H         -1.8481078809       -5.0942629070       -0.0415864517
 H          0.5777204348       -5.1561334186        0.6265361114
 H          1.0505594866       -5.4599920369       -1.0946045084
 H         -0.0356629756       -3.2862206087       -1.7663537504
 O         -2.9258891388       -1.9702199187        1.6349341764
