  62
        -98.94434626
 C         -1.5901736988       -1.4061641415        0.5059029332
 C         -1.6357825623       -0.1149458797        1.0906869517
 C         -2.7810101881        0.7209399109        0.7161127344
 C         -3.7056637938        0.2418325900       -0.1357486638
 C         -4.9502549101        0.9575540202       -0.5867118052
 C         -4.7308772921        1.9112606604       -1.7689602770
 C         -3.9729242086        3.1961744177       -1.4339385870
 H         -4.0771584437        3.8622571769       -2.2926897514
 H         -4.4483954127        3.6850886710       -0.5831224736
 C         -2.4791430048        2.9914074344       -1.1450601909
 H         -1.8980834334        3.7434391882       -1.6829576719
 H         -2.1645492215        2.0157239535       -1.5231099425
 C         -2.0971739800        3.0966836327        0.3311341720
 H         -1.0275315837        2.8935361071        0.4201933238
 H         -2.2817033088        4.1133887190        0.6841265837
 C         -2.8393246737        2.1194093438        1.2516598915
 H         -2.3442152547        2.1228018930        2.2255297663
 H         -3.8744988783        2.4338312048        1.3830510114
 H         -4.2032191199        1.3718889121       -2.5590356118
 H         -5.7160645018        2.1844125887       -2.1541685899
 H         -5.3800590167        1.5073317832        0.2510710176
 H         -5.6577112969        0.1847665777       -0.8951740738
 O         -3.6192748485       -0.9974240358       -0.6860001832
 C         -2.5499728121       -1.8391441208       -0.4092404486
 O         -2.5899594075       -2.9202728536       -1.0264009513
 O         -0.7657683741        0.3136313519        1.8942808767
 C         -0.4094670384       -2.2978269718        0.8545330293
 C          0.5483160597       -2.2940482572       -0.3113861465
 C          0.5919056290       -3.3050030048       -1.2632085113
 C          1.4656284635       -3.2166561452       -2.3326532782
 C          2.3235601364       -2.1393469965       -2.4598624075
 C          2.2875942524       -1.1222368541       -1.5120851919
 C          1.3934537480       -1.2000472691       -0.4565140831
 H          1.3543886073       -0.4020155509        0.2704963712
 N          3.1407792519       -0.0125436041       -1.6107627876
 S          3.8875011229        0.5765060558       -0.2292718471
 O          5.0973370744        1.2058560202       -0.7179866424
 O          4.0692317433       -0.4632166557        0.7562860065
 C          2.8033735158        1.8473705998        0.3806388994
 C          2.3405021016        1.7949257552        1.6793007994
 C          1.5430078574        2.8260251717        2.1490554259
 C          1.2278797258        3.8873345967        1.3155896242
 C          1.6995730416        3.9247177348        0.0111686857
 C          2.4957367074        2.8963049223       -0.4638505067
 H          2.8881593839        2.8918753126       -1.4672201584
 H          1.4461860863        4.7507161427       -0.6338664086
 H          0.6086777562        4.6897355597        1.6849226335
 H          1.1644362059        2.7886911543        3.1575327577
 H          2.6036440467        0.9498966900        2.2956718337
 H          3.7849155920       -0.0464127704       -2.3879060354
 H          3.0154996367       -2.0813386243       -3.2867311932
 H          1.4870177293       -4.0041347053       -3.0710049961
 H         -0.0727251822       -4.1485675405       -1.1763777713
 H          0.0921965505       -1.7965476170        1.6942233926
 C         -0.8270800563       -3.6824016690        1.2998548998
 C          0.1719713559       -4.5508897579        2.0023331365
 C         -0.9780065002       -3.9646951282        2.7633839831
 H         -1.7743834249       -4.6209046483        3.0810885112
 H         -0.7757981267       -3.1582441621        3.4531051432
 H          0.1683843171       -5.6109476290        1.7998461862
 H          1.1560943670       -4.1391099471        2.1711400565
 H         -1.5321402877       -4.1586033769        0.6303815189
