  62
        -98.94435485
 C         -1.2839517778       -1.6886997902       -0.8629133497
 C         -2.4988401260       -1.5403888024       -0.1438777199
 C         -3.3349334138       -0.3914572648       -0.4994966862
 C         -2.9462601984        0.4299619353       -1.4908272487
 C         -3.6646979676        1.6690479693       -1.9493566369
 C         -3.3242150891        2.9061216148       -1.1063331676
 C         -3.9603512737        2.9360239599        0.2841579720
 H         -3.8416760676        3.9515312615        0.6675869400
 H         -5.0303727464        2.7400194269        0.2009695549
 C         -3.3289546331        1.9582840461        1.2856075069
 H         -2.3440087586        1.6528699631        0.9217324808
 H         -3.1648884761        2.4705896698        2.2372353756
 C         -4.1715966510        0.7164100675        1.5812843780
 H         -3.6036130763        0.0737529196        2.2593324549
 H         -5.0925620165        1.0135360752        2.0888449253
 C         -4.5413296691       -0.1126931089        0.3444446315
 H         -4.9405451302       -1.0721079476        0.6831178938
 H         -5.3058039554        0.3999405996       -0.2389263562
 H         -2.2374847979        2.9707278148       -1.0036107887
 H         -3.6629499591        3.7856347970       -1.6594837654
 H         -3.3480259623        1.8537978581       -2.9781300283
 H         -4.7420354287        1.5010586263       -1.9396855607
 O         -1.8204078790        0.2106571153       -2.2124382809
 C         -0.9251954592       -0.8019528322       -1.8776539573
 O          0.1049887302       -0.7937344671       -2.5770377773
 O         -2.8580256304       -2.3345905688        0.7672730393
 C         -0.3451452390       -2.7650415543       -0.3408209278
 C          0.2835594255       -2.2417171625        0.9286431871
 C          0.3352399919       -2.9949377397        2.0936610213
 C          0.8423537061       -2.4423235506        3.2578249051
 C          1.2906162476       -1.1344747913        3.2847126219
 C          1.2502195210       -0.3738139985        2.1189381712
 C          0.7726801480       -0.9433378603        0.9500551826
 H          0.7230510571       -0.3495121247        0.0533144464
 N          1.6951069055        0.9485202802        2.1140725127
 S          1.5038103363        2.0306008282        0.8595862122
 O          1.7908913353        3.3108625576        1.4727481909
 O          0.2165466101        1.9141136416        0.2183427585
 C          2.8453185247        1.6072178236       -0.2323851744
 C          4.1189571698        1.8993976666        0.2205860733
 C          5.2079767867        1.5685314472       -0.5668310497
 C          5.0082091305        0.9491115421       -1.7922247672
 C          3.7261235399        0.6664532709       -2.2336837402
 C          2.6297635987        0.9975237923       -1.4503715891
 H          1.6279699062        0.7718242974       -1.7830182574
 H          3.5592807823        0.1835014600       -3.1831965394
 H          5.8548196907        0.6865387828       -2.4067890064
 H          6.2059742757        1.7911678289       -0.2252773113
 H          4.2266444394        2.3911269077        1.1732308943
 H          1.8815474323        1.3730825332        3.0077259039
 H          1.6573736608       -0.6969809992        4.2004191051
 H          0.8704189481       -3.0315927013        4.1618962573
 H         -0.0522230325       -4.0029768163        2.0934682955
 H         -0.9920032729       -3.6125810463       -0.0610512549
 C          0.6714103751       -3.2762245737       -1.3463345720
 C          2.1096003808       -2.8625075506       -1.3377986677
 C          1.7295230772       -4.2472898091       -0.9120807532
 H          1.9692361145       -5.0740254585       -1.5632023111
 H          1.7901530180       -4.4789779031        0.1405306763
 H          2.5922115155       -2.7223818302       -2.2923972161
 H          2.4364237557       -2.1643170756       -0.5824554895
 H          0.2268424965       -3.4413676331       -2.3217228226
