  62
        -98.94110658
 C          1.2119172109       -0.8533976568       -0.6557593364
 C          2.0306307023       -0.8334120064        0.4962619945
 C          2.7976354091        0.4028155329        0.7319303522
 C          2.6330572112        1.4453063978       -0.0997559038
 C          3.3507844060        2.7661073782       -0.0623799687
 C          4.5884911051        2.7378629143       -0.9756294501
 C          5.8638668706        2.2129236897       -0.3172164866
 H          6.6191064832        2.1208274826       -1.1010775774
 H          6.2256782453        2.9511363696        0.4015046941
 C          5.7277558034        0.8644010621        0.3946637619
 H          5.1346503247        0.1825666019       -0.2173364869
 H          6.7262142888        0.4326258325        0.4863066306
 C          5.1081742813        0.9806396809        1.7953812446
 H          5.7403965860        0.4561234982        2.5148033514
 H          5.1019692267        2.0283499498        2.0959685376
 C          3.6944225783        0.3957607452        1.9397284402
 H          3.1756247388        0.9068068104        2.7583276161
 H          3.7630712287       -0.6585863227        2.2262347567
 H          4.3456273061        2.1260454904       -1.8481573782
 H          4.7842658200        3.7515169099       -1.3311165599
 H          3.6173806107        3.0292374546        0.9570586493
 H          2.6498637549        3.5120465860       -0.4434797615
 O          1.7890494278        1.4049680746       -1.1664966668
 C          1.0581654841        0.2699583978       -1.4661856845
 O          0.3181125129        0.3841925119       -2.4650392219
 O          2.1324801582       -1.8053866696        1.2912938330
 C          0.3740990340       -2.0804940557       -0.9784003509
 C         -0.6055887654       -2.2884913980        0.1514681843
 C         -0.7096472055       -3.4557422914        0.8938404728
 C         -1.5859649690       -3.5204167922        1.9644963663
 C         -2.3616654092       -2.4322010400        2.3172673060
 C         -2.2791115218       -1.2637165181        1.5648781240
 C         -1.4240223310       -1.2135952374        0.4780673855
 H         -1.3485529366       -0.3067505470       -0.1015232262
 N         -3.0708582525       -0.1543159503        1.8801897729
 S         -2.7372372372        1.3941608594        1.3561683005
 O         -1.3208894635        1.6765384226        1.3151700392
 O         -3.5236714032        2.2315115289        2.2385772215
 C         -3.4626972228        1.4385787558       -0.2687951007
 C         -4.8246996284        1.2210925568       -0.3582200563
 C         -5.4275534006        1.2383774746       -1.6045373108
 C         -4.6618822794        1.4702673947       -2.7380016580
 C         -3.2979839058        1.6907992091       -2.6318239383
 C         -2.6897408532        1.6781616272       -1.3857309218
 H         -1.6268980820        1.8353712537       -1.2794295150
 H         -2.6924499643        1.8630757884       -3.5073227506
 H         -5.1290736095        1.4797186437       -3.7101559803
 H         -6.4886825278        1.0687652648       -1.6906137354
 H         -5.3827655353        1.0512986962        0.5473803371
 H         -3.5457490495       -0.1855490787        2.7688490555
 H         -3.0230455954       -2.4789003857        3.1687270612
 H         -1.6523242760       -4.4285639966        2.5443805328
 H         -0.0935417418       -4.3054595995        0.6507352649
 H         -0.1958297923       -1.8292995253       -1.8846400046
 C          1.2517613495       -3.2790264151       -1.2651292409
 C          0.7315495315       -4.4012198661       -2.1108047477
 C          1.7786524478       -3.4768972668       -2.6535226371
 H          2.7850432900       -3.8486701759       -2.7745011821
 H          1.4877624930       -2.7547201688       -3.4027093959
 H          1.0203936160       -5.4111690626       -1.8624734484
 H         -0.2724597317       -4.3108246894       -2.4966306949
 H          1.9128879605       -3.5199527728       -0.4412013189
