  62
        -98.94017097
 C          2.3198697909        0.9494600889       -0.4341625407
 C          3.2665280108        0.3418013485        0.4312480591
 C          3.6913214102       -1.0208002917        0.0923917690
 C          3.1736764697       -1.6127120915       -0.9990059008
 C          3.4606029090       -3.0221088916       -1.4281575908
 C          2.4482209787       -4.0023119512       -0.8194284406
 C          2.2570195391       -3.8372261010        0.6884340695
 H          1.7869156496       -2.8696775308        0.8818950496
 H          1.5496872989       -4.6044539907        1.0108059897
 C          3.5483788793       -3.9518464915        1.5108201492
 H          3.3550010092       -4.5865697514        2.3780015193
 H          4.3225257389       -4.4396951019        0.9175949290
 C          4.0813141700       -2.6202909017        2.0427515490
 H          3.2791045903       -2.0832804014        2.5552710892
 H          4.8575407501       -2.8348896120        2.7820284788
 C          4.6941601101       -1.6823332220        0.9955780288
 H          5.4409392098       -2.2219365524        0.4096255887
 H          5.1952366106       -0.8699733022        1.5299985387
 H          1.4809420187       -3.8447104408       -1.3031566903
 H          2.7783137582       -5.0196802813       -1.0381722006
 H          3.3913886987       -3.0711640117       -2.5161754808
 H          4.4708356789       -3.2900202120       -1.1242631311
 O          2.2868906597       -0.9967894912       -1.8194618206
 C          1.8243913403        0.2886063190       -1.5598120706
 O          1.0110047703        0.6989371794       -2.4109067604
 O          3.7426215213        0.9243675584        1.4436817989
 C          1.8665572216        2.3443676891       -0.0481041407
 C          0.6355078218        2.3188037097        0.8297744896
 C          0.5169807624        3.2043452397        1.8953365696
 C         -0.6212170474        3.2120408803        2.6807429499
 C         -1.6603152979        2.3383930907        2.4191853301
 C         -1.5465647785        1.4379161806        1.3646485602
 C         -0.4047906287        1.4370413401        0.5759619299
 H         -0.3380039892        0.7443207900       -0.2491328501
 N         -2.5666543889        0.5059225310        1.1203449004
 S         -2.7938014396       -0.1127813390       -0.4330570195
 O         -1.8403206701       -1.1709114094       -0.6524068797
 O         -2.8272205893        0.9633912810       -1.3968293695
 C         -4.4283360498       -0.8037694483       -0.2483682091
 C         -5.5249179495       -0.0215314278       -0.5595882488
 C         -6.7956555897       -0.5476003473       -0.3886086085
 C         -6.9484248802       -1.8402741972        0.0900639116
 C         -5.8390504804       -2.6143119577        0.3961907413
 C         -4.5655543002       -2.0938624382        0.2272000310
 H         -3.6738278704       -2.6594094386        0.4425254908
 H         -5.9608886607       -3.6202256976        0.7642358614
 H         -7.9381038603       -2.2481633568        0.2218623018
 H         -7.6593575795        0.0507057331       -0.6299056783
 H         -5.3568260292        0.9729063021       -0.9408813589
 H         -3.4421152187        0.7481258814        1.5635580806
 H         -2.5494634577        2.3417524711        3.0307224103
 H         -0.7016887869        3.9056465203        3.5036467398
 H          1.3285783427        3.8829521094        2.1102227394
 H          2.6897054119        2.7605426788        0.5507246191
 C          1.6188962017        3.2672848591       -1.2259969507
 C          1.8446946623        4.7403244991       -1.0716540208
 C          2.7822949018        3.9214910886       -1.9061570610
 H          2.7544557116        4.0265377486       -2.9801159410
 H          3.7673191218        3.7150416182       -1.5132063612
 H          1.1684628825        5.4166321793       -1.5714186307
 H          2.2026272527        5.0985612390       -0.1186410009
 H          0.7943809014        2.9457890195       -1.8504423505
