  62
        -98.94095502
 C         -1.7348500744       -0.9467653675        0.3351990918
 C         -2.1505521899        0.4056918202        0.4107095535
 C         -3.5992367389        0.6209877073        0.5700719231
 C         -4.4216356074       -0.4369997257        0.6796917713
 C         -5.9162881491       -0.3585870239        0.7882605244
 C         -6.5772598556       -0.4102420243       -0.5962922218
 C         -5.9694713199        0.5616062528       -1.6078180056
 H         -4.9423368614        0.2579933593       -1.8230222664
 H         -6.5347529252        0.4604302542       -2.5368232435
 C         -5.9784453397        2.0302888101       -1.1613439419
 H         -6.3138694968        2.6484192512       -1.9968193564
 H         -6.6941406837        2.1668146433       -0.3498419581
 C         -4.6138463837        2.5699972711       -0.7284579611
 H         -4.6891861591        3.6575376966       -0.6443581958
 H         -3.8721304020        2.3544977894       -1.5021600779
 C         -4.0817345313        2.0436584195        0.6105828274
 H         -4.8420548181        2.1712855214        1.3838927921
 H         -3.2101528821        2.6468782786        0.8822636898
 H         -7.6412765949       -0.1971851801       -0.4788604197
 H         -6.4752178410       -1.4236513190       -0.9913958176
 H         -6.2629108226       -1.2085316089        1.3785224254
 H         -6.1904663193        0.5622604680        1.2992997943
 O         -3.9787439097       -1.7199171974        0.6611156850
 C         -2.6348427952       -2.0056894388        0.4869713160
 O         -2.3670966404       -3.2233735223        0.4965693490
 O         -1.3709474705        1.3910813323        0.3511582682
 C         -0.2773356515       -1.3309693797        0.1441015717
 C          0.6119892098       -0.4931517489        1.0281461772
 C          0.4975325366       -0.6273981121        2.4097829463
 C          1.2904378450        0.1177076056        3.2600767870
 C          2.2329804831        0.9946338063        2.7513995915
 C          2.3538206075        1.1365939391        1.3748881349
 C          1.5456093913        0.3963983893        0.5221913087
 H          1.6257370249        0.5639672606       -0.5380787045
 N          3.2987719045        2.0141412156        0.8270445360
 S          4.0574565104        1.6436413376       -0.6099284313
 O          5.3125072399        2.3632753710       -0.5491012663
 O          3.2135017946        1.9577411595       -1.7348485739
 C          4.3617399571       -0.1147716882       -0.5498762429
 C          3.9291982899       -0.9163190344       -1.5862210143
 C          4.1647388605       -2.2807113586       -1.5247595353
 C          4.8242843975       -2.8179401741       -0.4304767475
 C          5.2595637226       -1.9987937532        0.5999938020
 C          5.0289844912       -0.6340816275        0.5418635558
 H          5.3619677789        0.0278596810        1.3243870777
 H          5.7748639795       -2.4197222602        1.4481722458
 H          5.0006459759       -3.8808774927       -0.3821009715
 H          3.8288405153       -2.9187992788       -2.3268410540
 H          3.4140543134       -0.4575841915       -2.4153370437
 H          3.9169754178        2.4574315621        1.4893717396
 H          2.8565679417        1.5761030525        3.4132043894
 H          1.1819951752        0.0103899264        4.3288634063
 H         -0.2358294480       -1.3164689200        2.8068454644
 H         -0.2119101121       -2.3734226014        0.4972825473
 C          0.1767791428       -1.3370744589       -1.3078708230
 C         -0.7736573710       -1.6635984304       -2.4195091715
 C         -0.2331199560       -0.2735337060       -2.2796122350
 H          0.4949674136        0.0774398538       -2.9971945799
 H         -0.8898956895        0.5039026243       -1.9218835530
 H         -0.4191145042       -2.2760093120       -3.2347263179
 H         -1.8075083541       -1.8399185599       -2.1595672186
 H          1.1861198077       -1.7247303368       -1.4086698140
