  62
        -98.95046017
 C         -1.7637220418       -1.2840352385       -0.2418835192
 C         -2.8570617913       -0.6436757575        0.3847093707
 C         -3.2689597102        0.6402665928       -0.1959674395
 C         -2.6053113199        1.1246194921       -1.2617345096
 C         -2.9034905488        2.4321866022       -1.9359566097
 C         -2.0587775479        3.5720311216       -1.3516635799
 C         -2.0863744877        3.6456107819        0.1749721001
 H         -1.4959379470        4.5177089214        0.4667802499
 H         -1.5678683484        2.7725572415        0.5792404202
 C         -3.4907787176        3.7517567231        0.7855565601
 H         -4.1987364574        4.0911812536        0.0281045901
 H         -3.4696253970        4.5084426732        1.5728523800
 C         -4.0099290187        2.4621485836        1.4242568403
 H         -4.8870646884        2.7110092644        2.0280462903
 H         -3.2494936390        2.0609292131        2.0997798503
 C         -4.4239178496        1.3524462938        0.4495632005
 H         -5.0999166993        1.7589946743       -0.3055568495
 H         -4.9635401802        0.5913250844        1.0211268406
 H         -2.4143771971        4.5152939618       -1.7718471301
 H         -1.0198270580        3.4285155507       -1.6580725100
 H         -3.9625305286        2.6580462331       -1.8249191697
 H         -2.6719935590        2.3299597819       -2.9978474297
 O         -1.5613360204        0.4800574811       -1.8392810795
 C         -1.0934730014       -0.7171279492       -1.3248009293
 O         -0.0995401718       -1.1793477601       -1.9191425493
 O         -3.4610208716       -1.1255308368        1.3828905408
 C         -1.2481384029       -2.5961849088        0.3206953009
 C          0.2057614173       -2.4564547499        0.6997386909
 C          1.1576080364       -3.4418463708        0.4683413210
 C          2.4821868166       -3.2343475518        0.8140855809
 C          2.8903119876       -2.0360950921        1.3710447707
 C          1.9431085585       -1.0492705412        1.6164911806
 C          0.6121417683       -1.2781265302        1.3124139107
 H         -0.1103061511       -0.5009391396        1.5148086606
 N          2.2995087695        0.2091404485        2.1487854204
 S          2.0816931906        1.5187765386        1.1195408402
 O          2.5719225115        2.6638184183        1.8573068100
 O          0.7121233606        1.5786148596        0.6837709402
 C          3.1860945902        1.1770598975       -0.2391986998
 C          2.7955506195        0.3020338476       -1.2327862197
 C          3.7050764791       -0.0179953633       -2.2301936496
 C          4.9766312696        0.5333816657       -2.2167731298
 C          5.3518324704        1.4115130155       -1.2107086299
 C          4.4515768007        1.7325541564       -0.2084391699
 H          4.6957340113        2.4111596463        0.5930951599
 H          6.3403538107        1.8417999547       -1.2025032500
 H          5.6775650494        0.2773764050       -2.9956250098
 H          3.4042441185       -0.7009556831       -3.0084519595
 H          1.7993492691       -0.1137022915       -1.2322596796
 H          3.2399432496        0.2399252078        2.5199320703
 H          3.9282769978       -1.8617793829        1.6117027406
 H          3.2099220360       -4.0089734324        0.6267624810
 H          0.8631687657       -4.3712612206        0.0089473011
 H         -1.8319106330       -2.7737310782        1.2367187110
 C         -1.5080921038       -3.7287981187       -0.6514055289
 C         -1.7658892550       -5.1174016984       -0.1491597387
 C         -2.8865344843       -4.3108124776       -0.7307587887
 H         -3.2753371746       -4.5858088774       -1.6996642387
 H         -3.6317220540       -3.9076420569       -0.0605140788
 H         -1.3878290757       -5.9513010988       -0.7211799986
 H         -1.7574197551       -5.2727915883        0.9190879714
 H         -0.9605460538       -3.6108737793       -1.5799129989
