  62
        -98.93792628
 C          1.1111721354        1.6222902454        0.4702466921
 C          1.6811766371        0.9148031320       -0.6134801414
 C          2.6981586305       -0.1036275945       -0.2728102193
 C          2.9614436852       -0.3575857982        1.0209321665
 C          3.9556253938       -1.3289759491        1.6042078586
 C          5.3686456476       -1.2751733031        1.0008429275
 C          5.7276955522       -2.5215592791        0.1915400562
 H          6.8154979837       -2.6129772626        0.1538565865
 H          5.3457070375       -3.4004694423        0.7151065874
 C          5.2133107703       -2.5234527955       -1.2466759266
 H          5.7784913921       -1.7945007749       -1.8315400492
 H          5.4218691932       -3.5092660550       -1.6690284970
 C          3.7208861070       -2.2259618243       -1.4145822693
 H          3.1449880410       -2.7229262236       -0.6355770862
 H          3.4107445244       -2.6580961922       -2.3686498249
 C          3.3850016906       -0.7280794684       -1.4575701704
 H          4.2935565552       -0.1540264908       -1.6659207487
 H          2.7097738507       -0.5276667581       -2.2955076158
 H          5.4724216254       -0.3833861556        0.3837623872
 H          6.0821692438       -1.1849131623        1.8214062522
 H          3.9961359639       -1.0931675331        2.6699075917
 H          3.5569397962       -2.3427903977        1.5235838304
 O          2.2941709207        0.2676124159        2.0347518006
 C          1.3796178006        1.2734492945        1.7932856575
 O          0.8722624398        1.7660580212        2.8229247425
 H         -1.5172200227        1.2821866431        1.6745124469
 C         -1.9003315541        1.3986341434        0.6682028533
 C         -1.1804421133        2.1681325406       -0.2387681665
 C         -1.6704322835        2.3056022189       -1.5296595702
 C         -2.8517642010        1.6832102203       -1.8988005500
 C         -3.5641380413        0.9163814479       -0.9952607031
 C         -3.0805190741        0.7754339791        0.2995891739
 N         -3.7824314532       -0.0372235896        1.2168430257
 S         -3.9680188153       -1.6301525733        0.7229086736
 O         -5.0929614893       -1.7202702151       -0.1729299759
 O         -4.0635655208       -2.4085711636        1.9375848035
 C         -2.4587403104       -1.9945780407       -0.1550912753
 C         -2.4780234675       -2.1655518546       -1.5237576698
 C         -1.2794179724       -2.3630805537       -2.1902334551
 C         -0.0887658234       -2.3778609726       -1.4818400991
 C         -0.0868897886       -2.2064078556       -0.1065291337
 C         -1.2809243432       -2.0090825815        0.5653085355
 H         -1.3095257656       -1.8709635406        1.6352264583
 H          0.8413189966       -2.2062011597        0.4431039642
 H          0.8457642334       -2.5172121959       -2.0004114939
 H         -1.2749414851       -2.4944800394       -3.2601091782
 H         -3.4253280863       -2.1401010964       -2.0369019665
 H         -3.3839627223       -0.0122783591        2.1451414160
 H         -4.4793320107        0.4164722642       -1.2685739917
 H         -3.2203843660        1.7945075308       -2.9069084385
 H         -1.1199910145        2.8861056236       -2.2507548221
 C          0.1240672558        2.7568918822        0.2389967385
 H         -0.0554836220        3.2001426959        1.2286911685
 C          0.6954205674        3.8209894343       -0.6720548295
 C          0.0808401008        5.1872929458       -0.6814501253
 C          1.4318247481        4.9772146739       -0.0680438360
 H          2.2990126027        5.3621668638       -0.5832838914
 H          1.5156737126        5.0101104490        1.0088358662
 H         -0.7543545997        5.3633892005       -0.0203412185
 H          0.0200636352        5.7200134742       -1.6180330938
 H          1.0742434736        3.4254932362       -1.6057855088
 O          1.3780471239        1.1231542363       -1.8152428866
