  62
        -98.93838539
 C         -0.6675441802       -1.4000073092        0.2466855813
 C         -1.4383122195       -0.5954622310        1.1194126106
 C         -2.4447515764        0.2886881848        0.5028749925
 C         -2.5310224859        0.3469483027       -0.8386722969
 C         -3.4427709529        1.1353248254       -1.7559987282
 C         -4.5936978649        1.9586151329       -1.1854459116
 C         -5.7623162202        1.1251516771       -0.6558653922
 H         -6.4535730659        1.7893076115       -0.1330374830
 H         -6.2945476511        0.6984600496       -1.5097981386
 C         -5.3864457622       -0.0302578193        0.2688864379
 H         -4.7249509972       -0.7215423189       -0.2570056484
 H         -6.3012464608       -0.5795376641        0.5077796207
 C         -4.7326155464        0.3749596432        1.5876507092
 H         -5.3864995463        1.0643860968        2.1256963047
 H         -4.6258530387       -0.5267984110        2.1973426081
 C         -3.3436649449        1.0195560553        1.4590622203
 H         -3.4269064058        2.0690118094        1.1905628769
 H         -2.8547798595        0.9655103991        2.4363834335
 H         -4.9760112803        2.5753756390       -2.0030980882
 H         -4.2286039666        2.6388762310       -0.4218535549
 H         -2.7836610808        1.7956100330       -2.3281159509
 H         -3.8445064615        0.4126622939       -2.4739491143
 O         -1.6862031961       -0.3643748939       -1.6405360910
 C         -0.7549234503       -1.2585587658       -1.1378151747
 O         -0.0899784816       -1.8369092229       -2.0162952003
 H          1.6585216234       -0.0965331420        0.5841192735
 C          2.2078169882       -0.9072940853        0.1278603416
 C          1.6772026880       -2.1904396282        0.1786500753
 C          2.3926984008       -3.2286629142       -0.4012594473
 C          3.6032162738       -2.9767251466       -1.0239724092
 C          4.1218792314       -1.6968821117       -1.0814091247
 C          3.4110897337       -0.6491240943       -0.5047989436
 N          3.8762164729        0.6686927098       -0.5908661588
 S          3.4576032247        1.8211116670        0.5341084127
 O          4.3528524703        2.9256544553        0.2604076197
 O          3.5033335233        1.2998589827        1.8810487882
 C          1.7983068147        2.3113045539        0.1147425585
 C          0.9064386926        2.5805619884        1.1337767385
 C         -0.3656866716        3.0245139150        0.8136362111
 C         -0.7232481699        3.1892659583       -0.5149329838
 C          0.1804090712        2.9059381397       -1.5272568353
 C          1.4564457851        2.4668252893       -1.2134411996
 H          2.1824565035        2.2382631680       -1.9761139861
 H         -0.1031561647        3.0265927803       -2.5607321322
 H         -1.7120422706        3.5419130790       -0.7615276641
 H         -1.0697992980        3.2350250913        1.6023164815
 H          1.2191561707        2.4254606841        2.1545024946
 H          4.8009727537        0.7932173323       -0.9731346990
 H          5.0604389849       -1.5029632433       -1.5777433133
 H          4.1491661547       -3.7905394008       -1.4768601250
 H          1.9953101839       -4.2300811855       -0.3883934576
 C          0.3420298624       -2.3531959864        0.8602164716
 H          0.4542674186       -2.0004527669        1.9000467547
 C         -0.1290116007       -3.7976139893        0.9406280256
 C         -1.5892432707       -4.1346708842        0.9668913915
 C         -0.7581473666       -4.4984973879       -0.2248297684
 H         -0.5223727770       -5.5406587059       -0.3839717107
 H         -0.8844150287       -3.9345645800       -1.1353992514
 H         -1.9218291841       -4.9229046089        1.6256891402
 H         -2.2926200321       -3.3202405090        0.8704752595
 H          0.5104592166       -4.3971578405        1.5815583599
 O         -1.2960568117       -0.6150039618        2.3719835598
