  62
        -98.94592513
 C         -1.3038809176       -1.4195245762        0.6263643291
 C         -2.3843921748       -1.3135524568       -0.2841719671
 C         -3.3732088014       -0.2641202514        0.0115208932
 C         -3.2119254586        0.5177813894        1.0932606974
 C         -4.1184629193        1.6505198501        1.4788398697
 C         -3.6647193317        2.9809848712        0.8607911341
 C         -3.3526398086        2.8972409002       -0.6332009213
 H         -2.4890540554        2.2457203998       -0.7844965336
 H         -3.0661279002        3.8988359633       -0.9606409267
 C         -4.5192487725        2.3977767102       -1.4966369851
 H         -4.5978635241        3.0335504298       -2.3809542221
 H         -5.4559890141        2.4926287305       -0.9460147032
 C         -4.3688243717        0.9594496669       -1.9946079663
 H         -3.3905076863        0.8335890612       -2.4650161296
 H         -5.1267145781        0.7848512206       -2.7629324243
 C         -4.5363052484       -0.1329162911       -0.9311911861
 H         -4.6104638864       -1.0930049570       -1.4499843974
 H         -5.4635988043        0.0302564005       -0.3781931198
 H         -2.7669663352        3.3198185866        1.3829569220
 H         -4.4491039795        3.7212782291        1.0288984359
 H         -5.1317653063        1.4180858936        1.1563017458
 H         -4.1076932054        1.7427301682        2.5664235247
 O         -2.1679097932        0.3804885627        1.9511726762
 C         -1.1983331939       -0.5857089989        1.7427362714
 O         -0.3053442425       -0.6045550100        2.6147905892
 H          2.2139356378       -1.2703892200        0.8169320766
 C          1.9676445643       -1.3612729739       -0.2303899403
 C          0.7732034603       -1.9573138278       -0.6122240391
 C          0.4853507816       -2.0691988204       -1.9686460734
 C          1.3774713907       -1.5954489137       -2.9130179951
 C          2.5621524764       -0.9923062939       -2.5288354546
 C          2.8576699962       -0.8714214268       -1.1762658683
 N          4.0559765367       -0.2705813585       -0.7568244419
 S          4.0479268461        0.7870694491        0.5394567343
 O          5.2755928509        1.5386926482        0.3900914133
 O          3.8999100449        0.0593084098        1.7729357837
 C          2.6504751462        1.8541864359        0.2454240606
 C          1.4740040176        1.6753031981        0.9421894971
 C          0.3932832907        2.4916312226        0.6463815729
 C          0.5034742383        3.4645314968       -0.3335633982
 C          1.6958888510        3.6351097566       -1.0214093400
 C          2.7787702312        2.8218745933       -0.7331875530
 H          3.7264319017        2.9320869454       -1.2351310370
 H          1.7809150352        4.3964941499       -1.7798287399
 H         -0.3436345576        4.0933653175       -0.5581436820
 H         -0.5285672532        2.3496477698        1.1885004776
 H          1.4031252314        0.9122636860        1.7017545826
 H          4.6285910744        0.0845165511       -1.5090641912
 H          3.2556849838       -0.6206906593       -3.2676453275
 H          1.1438001053       -1.6897789662       -3.9626240659
 H         -0.4513524599       -2.5063686146       -2.2747603976
 C         -0.1836300704       -2.4353776369        0.4544945337
 H          0.3613468163       -2.4392056105        1.4084580992
 C         -0.6896719581       -3.8394771048        0.1908418679
 C          0.2362815435       -4.9948096113        0.4179503049
 C         -0.9156674686       -4.7627197163        1.3482095252
 H         -1.7555282577       -5.4402631433        1.3106619295
 H         -0.7039215204       -4.3859428805        2.3387868529
 H          1.2302946190       -4.7743125713        0.7782466460
 H          0.1898594762       -5.8342798353       -0.2585315694
 H         -1.3857929034       -3.9044189732       -0.6342690059
 O         -2.5415666436       -2.0495656862       -1.2922178344
