  62
        -98.94473614
 C          2.0352826479        1.3725466878        0.3058206697
 C          2.6558641432        0.7520563401       -0.8054294496
 C          3.7973992317       -0.1208239945       -0.4939217916
 C          4.1846329586       -0.2714827111        0.7858008939
 C          5.2913056729       -1.1745104819        1.2465001566
 C          4.7575189070       -2.5706530842        1.5970505662
 C          3.8537076281       -3.1748413528        0.5219352426
 H          3.5599052461       -4.1695346575        0.8646933134
 H          2.9400172050       -2.5802581737        0.4456445460
 C          4.5018601933       -3.2829558007       -0.8654318749
 H          5.5861177605       -3.2087315501       -0.7741742294
 H          4.2778095218       -4.2681751749       -1.2798355799
 C          4.0067381779       -2.2502347786       -1.8799542260
 H          2.9136896154       -2.2570508689       -1.9074196182
 H          4.3593217969       -2.5512585133       -2.8700308924
 C          4.4741340189       -0.8079650186       -1.6461283654
 H          4.2134536635       -0.2272625213       -2.5357787160
 H          5.5592088707       -0.7871425759       -1.5268261544
 H          4.1851614632       -2.5001363696        2.5250698099
 H          5.6078061137       -3.2320478941        1.7725735170
 H          6.0434617583       -1.2476458440        0.4636356199
 H          5.7465171062       -0.7357745530        2.1359985345
 O          3.5679532602        0.3479472627        1.8249913704
 C          2.4699838064        1.1671858117        1.6142950590
 O          1.9724681715        1.6406555865        2.6568043760
 O          2.2767526090        0.9139970454       -1.9939080249
 C          0.8313915143        2.2723555370        0.0916863514
 C         -0.2746058154        1.4965613731       -0.5830235994
 C         -1.0036387133        1.9807876162       -1.6606557679
 C         -1.9980390164        1.2091355675       -2.2381680742
 C         -2.2942738527       -0.0500351209       -1.7512710073
 C         -1.5876479496       -0.5338713852       -0.6567143205
 C         -0.5951503958        0.2417531022       -0.0782687034
 H         -0.0433994783       -0.1390223044        0.7730941691
 N         -1.8914416872       -1.8036062804       -0.1394326744
 S         -3.5000759136       -2.2371307679        0.0101331874
 O         -3.5339809525       -3.1902337183        1.0973562410
 O         -3.9945661813       -2.7134285332       -1.2576624582
 C         -4.3571457161       -0.7394886894        0.4645984873
 C         -5.3698415559       -0.2557108823       -0.3383238924
 C         -6.0079667930        0.9202543302        0.0225362346
 C         -5.6211494579        1.5906196049        1.1723372790
 C         -4.6038717116        1.0900206489        1.9707339862
 C         -3.9643860682       -0.0865479046        1.6162188656
 H         -3.1727874320       -0.5023456250        2.2193160072
 H         -4.3033766725        1.6120939318        2.8650732867
 H         -6.1146478185        2.5083409255        1.4505822663
 H         -6.8007606904        1.3105065187       -0.5949309442
 H         -5.6357573913       -0.8072807116       -1.2253417146
 H         -1.3614864211       -2.0544031323        0.6815073174
 H         -3.0488952823       -0.6711380066       -2.2057812735
 H         -2.5466321944        1.5922544115       -3.0848032398
 H         -0.7854705916        2.9579869493       -2.0582011545
 H          0.4835292035        2.5584196155        1.0951706548
 C          1.2393990814        3.5241137908       -0.6566678306
 C          0.5018115451        4.8097919415       -0.4374108050
 C          1.8881338556        4.6392927077        0.1050346310
 H          2.6978890280        5.1799995875       -0.3614874358
 H          2.0110329092        4.5054518936        1.1702509642
 H          0.3609935540        5.4735591887       -1.2770219221
 H         -0.3191874990        4.8025191963        0.2632997048
 H          1.6181870109        3.3102009012       -1.6493243740
