  62
        -98.94671632
 C          1.9907898900        1.4551462235       -0.0986084968
 C          1.7182298473        0.2148961699       -0.7219545004
 C          2.8724074194       -0.6752686806       -0.9088583458
 C          4.0935321902       -0.2603033696       -0.5253544612
 C          5.3433770488       -1.0871401785       -0.6055213927
 C          5.5715054693       -1.8751942049        0.6923780858
 C          4.3382748154       -2.6361892677        1.1795654647
 H          4.6267904883       -3.1752887326        2.0845086198
 H          3.5664108043       -1.9181252179        1.4659949462
 C          3.7564158436       -3.6247406626        0.1594183501
 H          4.4995448344       -3.8455747892       -0.6076341857
 H          3.5304264309       -4.5624464352        0.6713109521
 C          2.4617179921       -3.1577811272       -0.5087433912
 H          1.7501021533       -2.8404669711        0.2581971306
 H          2.0254752321       -4.0115365453       -1.0344917089
 C          2.6123715807       -2.0201653154       -1.5269054718
 H          3.3918956099       -2.2718771459       -2.2487248369
 H          1.6648033098       -1.9231489170       -2.0653933247
 H          6.3933302694       -2.5751450258        0.5308781205
 H          5.8717660967       -1.1739610626        1.4745182350
 H          5.2677036711       -1.7698981747       -1.4495856355
 H          6.1896475273       -0.4173172408       -0.7669100876
 O          4.3218768865        0.9562475204        0.0332924505
 C          3.2786972358        1.8341518425        0.2794080642
 O          3.6194783357        2.8997820426        0.8314374840
 H         -1.8712703501        2.1119263169       -0.2731427303
 C         -1.5298186613        1.6744890432        0.6494612652
 C         -0.1961695834        1.7414219559        1.0186648692
 C          0.1930091528        1.1576569364        2.2227377501
 C         -0.7258581138        0.5138378964        3.0275571119
 C         -2.0535791854        0.4295389810        2.6440453386
 C         -2.4539442408        1.0125476957        1.4488292736
 N         -3.8014979810        0.9658405738        1.0445517008
 S         -4.2076750824        0.3213411727       -0.4475596195
 O         -3.5763391019        1.0755242191       -1.4980585648
 O         -5.6548871033        0.3066479608       -0.4529625830
 C         -3.6021351378       -1.3561756385       -0.3999687577
 C         -2.2596754781       -1.6046107642       -0.6029924589
 C         -1.8044425878       -2.9107188737       -0.5017286705
 C         -2.6864788015       -3.9365201119       -0.2014528027
 C         -4.0321790089       -3.6679244089        0.0005696530
 C         -4.4950231697       -2.3659951421       -0.0941779088
 H         -5.5325107567       -2.1105655550        0.0501888467
 H         -4.7184932966       -4.4664685980        0.2325274686
 H         -2.3227194355       -4.9492288953       -0.1256738603
 H         -0.7558048919       -3.1074832533       -0.6595841057
 H         -1.5808821738       -0.7998456869       -0.8369744948
 H         -4.4207987877        0.5832925091        1.7457134643
 H         -2.7735356273       -0.0790940932        3.2673062795
 H         -0.4069781955        0.0672018489        3.9572546221
 H          1.2327613315        1.2175182140        2.5162874987
 C          0.8541641943        2.4238198796        0.1761221254
 H          1.2878548039        3.2442052796        0.7665364619
 C          0.3191882174        2.9916080381       -1.1214280913
 C         -0.3343632903        4.3395581172       -1.1371980429
 C          1.0213954079        4.1562373580       -1.7489754899
 H          1.1117810466        4.1858128796       -2.8245320072
 H          1.8782806925        4.5577757311       -1.2273012310
 H         -1.1790166996        4.4930466923       -1.7921612060
 H         -0.3999432337        4.8743474309       -0.2015774456
 H         -0.0733790389        2.2301818588       -1.7863042990
 O          0.5707432929       -0.1359651712       -1.1001321983
