  62
        -98.94710913
 C          1.2030905491        0.7772306706        0.6710325892
 C          2.0016061188        0.7232391609       -0.4961176010
 C          2.7152620896       -0.5395136887       -0.7219271609
 C          2.5209902005       -1.5775488286        0.1105361594
 C          3.1517205313       -2.9385618582       -0.0081658705
 C          4.5607031715       -3.0291382672        0.5946378591
 C          5.6589666409       -2.3291520166       -0.2068837413
 H          6.6148235312       -2.6561048659        0.2072059685
 H          5.6205206908       -2.6660354469       -1.2432651613
 C          5.5989605899       -0.7960671567       -0.1592174916
 H          4.9678531399       -0.4821347769        0.6752412785
 H          6.5989389397       -0.3981384760        0.0269604180
 C          5.0825873391       -0.1423535873       -1.4409822516
 H          5.0465024885        0.9386551827       -1.2844912919
 H          5.7771176590       -0.3413700670       -2.2601122818
 C          3.6823137993       -0.6050773283       -1.8651799712
 H          3.7245310798       -1.6159710483       -2.2710083710
 H          3.3169469986        0.0680250513       -2.6450156812
 H          4.5330230516       -2.6215404870        1.6077630790
 H          4.8145470123       -4.0890586770        0.6690722793
 H          3.1799339512       -3.2370064284       -1.0567302305
 H          2.4997795219       -3.6310441285        0.5291516598
 O          1.6864470607       -1.5095963689        1.1814304696
 C          1.0211230200       -0.3335042593        1.4931474995
 O          0.3033580204       -0.4070820296        2.5118690897
 O          2.1204340580        1.6780351508       -1.3082517412
 C          0.4236066384        2.0392863602        1.0032212992
 C         -0.5595821221        2.2932513293       -0.1141078706
 C         -0.6432465631        3.4793995291       -0.8288181208
 C         -1.5286126334        3.5899339483       -1.8881398606
 C         -2.3337834528        2.5288609477       -2.2573097302
 C         -2.2716297119        1.3419816579       -1.5325391899
 C         -1.4073402815        1.2462192787       -0.4560689401
 H         -1.3493913108        0.3249516889        0.1029768500
 N         -3.0930704513        0.2585204273       -1.8635051095
 S         -2.7662023501       -1.3086044924       -1.3930242392
 O         -1.3541808099       -1.6143493715       -1.4117532596
 O         -3.5978707898       -2.1103416731       -2.2670470588
 C         -3.4285101796       -1.3864065025        0.2570444310
 C         -2.6273983391       -1.7425513317        1.3218626208
 C         -3.1789096487       -1.7804790318        2.5932777710
 C         -4.5170913189       -1.4696095326        2.7749924013
 C         -5.3127798294       -1.1226909134        1.6927365314
 C         -4.7657073298       -1.0789157633        0.4214520113
 H         -5.3488786502       -0.8179713438       -0.4458431086
 H         -6.3538288295       -0.8834125640        1.8382467017
 H         -4.9404913186       -1.4983191827        3.7666396514
 H         -2.5497293183       -2.0403367512        3.4295443509
 H         -1.5849473590       -1.9672591711        1.1533903006
 H         -3.5751341215        0.3213670968       -2.7468167993
 H         -3.0025815131        2.6106799771       -3.1002945600
 H         -1.5790895342        4.5126080282       -2.4462662208
 H         -0.0047564835        4.3085423896       -0.5725806812
 H         -0.1451856512        1.8151493100        1.9172782894
 C          1.3604462177        3.1955547109        1.2768650387
 C          0.9159902372        4.3304312908        2.1483285086
 C          1.9340169580        3.3529577715        2.6519225885
 H          2.9594494078        3.6767625622        2.7486363681
 H          1.6309199186        2.6355910715        3.4009226087
 H          1.2443423565        5.3289278609        1.9026879583
 H         -0.0799336527        4.2816333402        2.5616164289
 H          2.0092387873        3.4151989911        0.4371560585
