  62
        -98.94629528
 C         -1.3562756644       -1.2319198707        0.5228557904
 C         -1.6413006298       -0.4215724782       -0.6036263790
 C         -2.3991079758        0.8062167101       -0.3246662151
 C         -2.6833750095        1.1455284481        0.9452198500
 C         -3.4109284587        2.3856250293        1.3895828391
 C         -4.9398470155        2.2555917269        1.3557998903
 C         -5.5588264124        2.2527551086       -0.0424790885
 H         -6.6364724778        2.3735145350        0.0845723297
 H         -5.1986317500        3.1180843337       -0.5997450366
 C         -5.2970783481        0.9722392714       -0.8476627380
 H         -6.2279607058        0.6380115015       -1.3113085593
 H         -4.9739198970        0.1767674259       -0.1721378928
 C         -4.2641445942        1.1247341838       -1.9643385684
 H         -4.6391691531        1.8230597148       -2.7156943798
 H         -4.1353321413        0.1513935101       -2.4442278577
 C         -2.8853392796        1.6077812093       -1.4938421849
 H         -2.1754821390        1.4592302859       -2.3103655470
 H         -2.9252976890        2.6679193223       -1.2446687126
 H         -5.2250709522        1.3423784278        1.8833463795
 H         -5.3516833308        3.1014777619        1.9111536919
 H         -3.1042263199        2.5751104235        2.4207291431
 H         -3.1064860251        3.2334301984        0.7748185673
 O         -2.3026673412        0.3862530484        2.0082623024
 C         -1.6610068431       -0.8273425149        1.8224603829
 O         -1.4011104975       -1.4364143158        2.8818648896
 O         -1.2918415646       -0.7002287309       -1.7774532938
 C         -0.6226418909       -2.5534877760        0.3550303692
 C          0.7917110759       -2.2522240676       -0.0773600785
 C          1.3305315001       -2.6234013265       -1.3007298338
 C          2.6195125924       -2.2458287580       -1.6403313001
 C          3.3946031818       -1.4994526632       -0.7722661848
 C          2.8659879044       -1.1331043369        0.4594869280
 C          1.5767400791       -1.5085914487        0.7966374254
 H          1.1609144157       -1.2151751967        1.7529327407
 N          3.6419654165       -0.3567816718        1.3461805936
 S          4.1942261456        1.0982183769        0.7235859776
 O          5.3652971290        0.8559005651       -0.0803627800
 O          4.3806797875        1.9629029739        1.8673833500
 C          2.8633013110        1.6928150430       -0.3047454760
 C          3.0140932593        1.7321425094       -1.6753585986
 C          1.9515909996        2.1633765308       -2.4531423751
 C          0.7626831584        2.5414256122       -1.8503687803
 C          0.6249871594        2.4921451588       -0.4719947584
 C          1.6829392407        2.0606528933        0.3100350230
 H          1.6076966760        2.0156756847        1.3855459127
 H         -0.3048050813        2.7759248175       -0.0049942235
 H         -0.0645255482        2.8757208423       -2.4558159035
 H          2.0513459782        2.1989420231       -3.5258990718
 H          3.9559290768        1.4297710601       -2.1030015899
 H          3.1869077859       -0.2006052384        2.2345588998
 H          4.3952957502       -1.1888034559       -1.0255195876
 H          3.0243045309       -2.5343386609       -2.5981804018
 H          0.7380813649       -3.1951021937       -1.9951490141
 H         -0.5798843486       -3.0056393981        1.3560887593
 C         -1.3699516913       -3.4870893676       -0.5712283220
 C         -1.1073761326       -4.9607049624       -0.5072629997
 C         -2.4033335219       -4.4072711698        0.0025789991
 H         -3.3029616292       -4.5907603102       -0.5655305503
 H         -2.5622307632       -4.3762722976        1.0710238977
 H         -1.1185845406       -5.5280530396       -1.4253274992
 H         -0.3853153570       -5.3083666883        0.2161428739
 H         -1.5790829997       -3.0463330740       -1.5380148458
