  62
        -98.93094038
 C         -1.7110119854       -0.1770575387       -0.8100244106
 C         -2.8560796436        0.6497119160       -0.9240455265
 C         -4.1486747404        0.0065735522       -0.6183777802
 C         -4.1779690298       -1.2877276256       -0.2570549510
 C         -5.4010484801       -2.0515604024        0.1649410310
 C         -5.7798377562       -1.6828178367        1.6135673998
 C         -7.1176979588       -0.9554602743        1.7503128165
 H         -7.9280868686       -1.6780285415        1.6329494914
 H         -7.1729202277       -0.5611505667        2.7672938569
 C         -7.3615958899        0.1864924004        0.7589800750
 H         -7.6760604029       -0.2227218411       -0.2022716703
 H         -8.2054188320        0.7648168914        1.1414764333
 C         -6.1796108423        1.1360566961        0.5248446032
 H         -5.5029925427        1.1259935229        1.3796741340
 H         -6.5715813319        2.1519211833        0.4422026359
 C         -5.3799020392        0.8583724156       -0.7619340354
 H         -6.0408050748        0.4209418156       -1.5153835105
 H         -5.0152343671        1.8109407000       -1.1579879313
 H         -5.8202167189       -2.5883344898        2.2208768272
 H         -4.9825336244       -1.0624875761        2.0283615631
 H         -6.2231972584       -1.8338592166       -0.5132151510
 H         -5.1608583580       -3.1125617657        0.0937720510
 O         -3.0569140964       -2.0490161746       -0.1585793708
 C         -1.8083478231       -1.5181899080       -0.4292299609
 O         -0.8703733222       -2.3314005132       -0.3057146928
 O         -2.8268703072        1.8611231461       -1.2586871363
 C         -0.2985290651        0.3085865222       -1.0883015886
 C          0.3374803608        0.9268974023        0.1299703761
 C         -0.3492245183        1.8219746989        0.9433402274
 C          0.2743280671        2.3903067061        2.0393279154
 C          1.5965121738        2.1012816052        2.3281310804
 C          2.2926903745        1.2111880214        1.5195342727
 C          1.6524358924        0.6151996655        0.4423166108
 H          2.1900911806       -0.0969388096       -0.1642829927
 N          3.6350978961        0.8972065973        1.7728480238
 S          4.7012883093        0.7702515329        0.4849304299
 O          5.9981732517        1.0638532497        1.0554340122
 O          4.2870664190        1.5978988226       -0.6227056094
 C          4.6464673380       -0.9496110725        0.0320383364
 C          4.9502729834       -1.8881913248        0.9982097096
 C          4.9234471626       -3.2308601315        0.6584060154
 C          4.5960962337       -3.6101871303       -0.6347797876
 C          4.2974665502       -2.6555696714       -1.5944606079
 C          4.3232918449       -1.3106347012       -1.2606878354
 H          4.0942407951       -0.5369675194       -1.9772457485
 H          4.0414524876       -2.9519251757       -2.5991310681
 H          4.5726888997       -4.6560432400       -0.8974632933
 H          5.1550722142       -3.9774111531        1.4009343397
 H          5.2044623000       -1.5537441563        1.9901422946
 H          4.0458704946        1.3874402392        2.5540184415
 H          2.0866280093        2.5608238511        3.1731569039
 H         -0.2703164085        3.0802966058        2.6663649590
 H         -1.3696856953        2.0774276546        0.7021685776
 H          0.2749554048       -0.6018405075       -1.3262401169
 C         -0.2062199435        1.2212557674       -2.3046103906
 C         -0.0025334289        2.7004287401       -2.2190596512
 C          1.1085031030        1.8228990118       -2.7073667655
 H          1.3612146654        1.8472488332       -3.7570858353
 H          1.9589088975        1.6834757912       -2.0547412243
 H         -0.5319580233        3.3208425667       -2.9259195400
 H          0.0930517472        3.1453502674       -1.2411639789
 H         -0.8444501396        0.8742922513       -3.1116120630
