  62
        -98.94476830
 C          1.5999059157        1.2967010249       -0.2222985550
 C          1.4013760618       -0.0706810238       -0.5298042956
 C          2.2262100079       -1.0249230463        0.2223477820
 C          3.0588782434       -0.5880834954        1.1824650682
 C          3.9337697195       -1.4434579199        2.0582420881
 C          5.2696282198       -1.8394346509        1.4137523429
 C          5.1731128537       -2.8821947424        0.2992250512
 H          4.6057897580       -3.7419006825        0.6571839122
 H          6.1892005594       -3.2246664781        0.0933783257
 C          4.5540506653       -2.3602270171       -1.0048428874
 H          5.1609527345       -2.6870614907       -1.8520992894
 H          4.5684306404       -1.2679755733       -1.0021473085
 C          3.1236641080       -2.8346629628       -1.2610948646
 H          3.1154815675       -3.9183440389       -1.3968333506
 H          2.7710592928       -2.3745310406       -2.1873579248
 C          2.1333852795       -2.4752055192       -0.1457920109
 H          2.3067645843       -3.0993199855        0.7307709041
 H          1.1194628937       -2.6642215813       -0.5065451756
 H          5.9048858433       -2.2428793445        2.2057262978
 H          5.7509621913       -0.9374202546        1.0288254123
 H          4.1437746057       -0.8552985265        2.9544412486
 H          3.3880827327       -2.3401689885        2.3543740191
 O          3.1889559885        0.7309264874        1.4863392002
 C          2.4799855510        1.6933296251        0.7891724720
 O          2.7200535855        2.8633513167        1.1536623512
 H         -1.1301956846        0.6645091302       -0.3613700159
 C         -1.3579268933        1.6448499526        0.0195445153
 C         -0.4605100188        2.6845283241       -0.1807405071
 C         -0.7758348496        3.9460142552        0.3085737205
 C         -1.9563476433        4.1553712579        0.9991611614
 C         -2.8238982649        3.1060946340        1.2393075531
 C         -2.5172317805        1.8383601768        0.7542610547
 N         -3.3780004457        0.7581910962        0.9957536309
 S         -2.8072621855       -0.7716494909        1.4030304345
 O         -3.6666093064       -1.2032068759        2.4891090514
 O         -1.3919993542       -0.7576987726        1.6796078341
 C         -3.1996278717       -1.7530867106       -0.0313380597
 C         -2.2601259736       -1.9762112019       -1.0165411863
 C         -2.6186968076       -2.7340169670       -2.1218205648
 C         -3.8999467062       -3.2515587052       -2.2249342501
 C         -4.8331642813       -3.0182070521       -1.2257358485
 C         -4.4819905178       -2.2627489642       -0.1197592129
 H         -5.1697841060       -2.0695873373        0.6867534870
 H         -5.8293792645       -3.4226252293       -1.3052495294
 H         -4.1706564014       -3.8406855015       -3.0870408690
 H         -1.8880493840       -2.9105789872       -2.8951992830
 H         -1.2670947543       -1.5634368305       -0.9232238381
 H         -4.1787624629        0.9924110781        1.5648680070
 H         -3.7306034808        3.2615622404        1.8046528339
 H         -2.1928133528        5.1398510684        1.3738314938
 H         -0.0801568676        4.7594564110        0.1635978488
 C          0.8470999943        2.4350803064       -0.8954618096
 H          1.4738575765        3.3276287682       -0.7593116383
 C          0.6216234365        2.2327998004       -2.3806528516
 C          0.4369787844        3.4335499630       -3.2570367922
 C          1.6971336201        2.6269574091       -3.3457026044
 H          1.8588492785        2.0093367664       -4.2161608694
 H          2.6037207119        3.0502580509       -2.9373523854
 H          0.4915943798        4.4067921135       -2.7931285969
 H         -0.2706931842        3.3726698940       -4.0692803246
 H          0.0471547680        1.3460406547       -2.6114600223
 O          0.5860502722       -0.5032383817       -1.3872009257
