  62
        -98.94759049
 C          1.1627921439        1.1804613597        0.4419045187
 C          1.5811746620        0.4707212877       -0.7093437375
 C          2.3439683481       -0.7621320473       -0.4558879542
 C          2.4995288224       -1.1935666616        0.8085566788
 C          3.2783470465       -2.4123851251        1.2091351751
 C          4.7381359271       -2.0567132816        1.5253226027
 C          5.4089410659       -1.1900405948        0.4590285261
 H          4.9222525258       -0.2121258463        0.4374231420
 H          6.4410301915       -1.0270004319        0.7770500118
 C          5.3986526033       -1.7937375136       -0.9524539108
 H          6.3892303981       -1.6650391829       -1.3935436125
 H          5.2071298716       -2.8657964656       -0.8943382855
 C          4.3963987164       -1.1502589405       -1.9128507177
 H          4.5198393211       -0.0645904297       -1.8977052104
 H          4.6289659745       -1.4922406785       -2.9246752916
 C          2.9203600736       -1.4744122147       -1.6483435709
 H          2.3427159179       -1.1293724579       -2.5110069453
 H          2.8013647299       -2.5562229566       -1.5572571526
 H          5.3000519394       -2.9840425835        1.6507903953
 H          4.7640503989       -1.5133307281        2.4728778291
 H          2.8150842372       -2.8384664291        2.1008847254
 H          3.2381584416       -3.1458414000        0.4061804594
 O          1.9978328470       -0.5322923016        1.8846824685
 C          1.3609697204        0.6895638639        1.7330828182
 O          1.0214470822        1.2296836735        2.8058280095
 H         -1.5698379135        1.0930806699        1.2662437722
 C         -1.8207270561        1.5138206599        0.3026744640
 C         -0.8895864228        2.3036981340       -0.3627187117
 C         -1.2357190127        2.8535316434       -1.5894534944
 C         -2.4826789333        2.6068787780       -2.1374236279
 C         -3.4029409143        1.8140362442       -1.4777693534
 C         -3.0699137502        1.2656035491       -0.2432546658
 N         -4.0026684645        0.4868797479        0.4635972351
 S         -3.5454223573       -0.9385113777        1.2034702789
 O         -4.7982712321       -1.5931006696        1.5127798719
 O         -2.6735097977       -0.6735725889        2.3185083949
 C         -2.6912275852       -1.8559965217       -0.0626039133
 C         -3.4475312776       -2.5448721899       -0.9916856755
 C         -2.8028537478       -3.2235497916       -2.0121680304
 C         -1.4183676013       -3.1972392757       -2.0888148904
 C         -0.6742246866       -2.5032991363       -1.1478639764
 C         -1.3137568934       -1.8218584334       -0.1246139812
 H         -0.7618700472       -1.2722059650        0.6227787861
 H          0.4013364909       -2.4748102297       -1.2045537226
 H         -0.9124190822       -3.7214577366       -2.8839587086
 H         -3.3780943590       -3.7680344247       -2.7434089311
 H         -4.5201728186       -2.5503727999       -0.8851000764
 H         -4.8859673222        0.3687078827       -0.0118856143
 H         -4.3755119574        1.6250566100       -1.9058059394
 H         -2.7392648296        3.0360093040       -3.0938765553
 H         -0.5286566697        3.4688835330       -2.1197524536
 C          0.4487923645        2.5146248473        0.3033771422
 H          0.2573706838        2.8591717458        1.3300623816
 C          1.3328166068        3.5272095589       -0.3934170168
 C          1.0834708540        4.9914467169       -0.1980946351
 C          2.2830850663        4.3454643792        0.4259038826
 H          3.2589094512        4.5647077650        0.0189176298
 H          2.2829429264        4.1867560065        1.4949491171
 H          1.2375505919        5.6582044149       -1.0327486960
 H          0.2678775285        5.2761197971        0.4494302058
 H          1.6768422146        3.1909835961       -1.3640740546
 O          1.3474489423        0.8458883797       -1.8863863124
