  62
        -98.94288062
 C          2.4507188491        0.0428806092       -0.0423844122
 C          1.5710659598        0.4481981503        0.9893933080
 C          1.1945343807        1.8672042205        1.0017167875
 C          1.6583181107        2.6767784397        0.0332917669
 C          1.2511462415        4.1082473999       -0.1689918737
 C         -0.1356496488        4.1545505204       -0.8442033731
 C         -1.2404376881        4.7645442314        0.0191923270
 H         -2.1897441284        4.5505607817       -0.4772869825
 H         -1.1151532274        5.8496632914        0.0443173464
 C         -1.3102799477        4.2632544222        1.4650395673
 H         -2.2862167374        4.5572642630        1.8570694176
 H         -0.5620990872        4.7809557021        2.0678364567
 C         -1.1372972186        2.7508666022        1.6563013180
 H         -1.3989115893        2.2149300719        0.7427739484
 H         -1.8337276984        2.4214479230        2.4305397685
 C          0.2755795314        2.3244233016        2.0999045076
 H          0.1873810012        1.4653136420        2.7711934681
 H          0.7477798821        3.1365129216        2.6597181270
 H         -0.4164017995        3.1360924804       -1.1243342125
 H         -0.0708070788        4.7268653199       -1.7716758634
 H          1.2305238622        4.6267955204        0.7870941561
 H          2.0007040415        4.5771871891       -0.8072526342
 O          2.4981653101        2.2513973588       -0.9468242233
 C          2.8880572992        0.9249920885       -1.0271927328
 O          3.6147876187        0.6580795476       -2.0088784630
 H          0.9033112578       -0.8876499908       -1.9267218510
 C          0.6126285676       -1.7125714403       -1.2867623505
 C          1.5111509877       -2.1850206004       -0.3368605106
 C          1.1235396374       -3.2503546997        0.4641602001
 C         -0.1490962329       -3.7861953390        0.3535359409
 C         -1.0658014130       -3.2572574389       -0.5374665290
 C         -0.6723600427       -2.2163978596       -1.3673094997
 N         -1.6433095327       -1.6040731794       -2.2179262896
 S         -2.1825761116       -0.1613699188       -1.5164568101
 O         -3.1754756217        0.3702022113       -2.4271149799
 O         -1.0825988010        0.7332003207       -1.2232783910
 C         -2.9576731113       -0.7382777176       -0.0268209395
 C         -4.2816383616       -1.1276245868       -0.0939601787
 C         -4.8921634514       -1.6260697959        1.0450178618
 C         -4.1686517209       -1.7314036757        2.2238384715
 C         -2.8401668607       -1.3385598265        2.2721929208
 C         -2.2215977309       -0.8369698574        1.1370978903
 H         -1.1865389207       -0.5316397080        1.1497813897
 H         -2.2707936504       -1.4222816664        3.1839145706
 H         -4.6421230008       -2.1219494350        3.1108679019
 H         -5.9253046516       -1.9321095253        1.0099936424
 H         -4.7999789219       -1.0233229870       -1.0329616186
 H         -1.2699708230       -1.3779042901       -3.1311709299
 H         -2.0752938233       -3.6301289484       -0.5966831684
 H         -0.4399669432       -4.6048993985        0.9931441814
 H          1.8100970575       -3.6433687698        1.1959838300
 C          2.8090530282       -1.4289341410       -0.1867292416
 H          3.3835073278       -1.5165804118       -1.1200832218
 C          3.6641809284       -1.8989885910        0.9692379983
 C          4.5818328777       -3.0710774616        0.7963512685
 C          5.1459052285       -1.6873383819        0.9080671076
 H          5.6645702491       -1.4108489017        1.8135608372
 H          5.5435306684       -1.2199636025        0.0186385072
 H          4.6048356370       -3.5498050421       -0.1709397713
 H          4.7185067876       -3.7463702713        1.6271976488
 H          3.1787946889       -1.7622856402        1.9282533084
 O          1.1120675097       -0.3420459990        1.8559156086
