  62
        -98.93749204
 C         -2.2536223397       -0.7602292200        0.0943441804
 C         -3.5720650196       -1.1904094401        0.3933564205
 C         -4.6589213998       -0.5003820997       -0.3133269689
 C         -4.3566322700        0.4906410806       -1.1712683585
 C         -5.3633044702        1.3101070810       -1.9246416779
 C         -5.7592692199        2.5670033007       -1.1373863272
 C         -6.1406840896        2.2899305800        0.3168071428
 H         -5.2570947594        1.9399088798        0.8555535124
 H         -6.4325321494        3.2427667798        0.7636447933
 C         -7.2770209995        1.2728797500        0.4923661526
 H         -7.9800597393        1.6578943197        1.2339853030
 H         -7.8233275098        1.1622509104       -0.4449832173
 C         -6.8247812995       -0.1046360203        0.9804260519
 H         -7.7127884194       -0.6683840404        1.2782866119
 H         -6.1967262692        0.0084818693        1.8676128818
 C         -6.0644279698       -0.9588675798       -0.0418366787
 H         -6.6356385300       -1.0160305694       -0.9707209586
 H         -5.9753693097       -1.9682780100        0.3702982308
 H         -6.5952626101        3.0459352209       -1.6503533068
 H         -4.9140780299        3.2591893406       -1.1439677471
 H         -4.9182324304        1.6119858614       -2.8742667379
 H         -6.2428314102        0.7008013611       -2.1237223879
 O         -3.0842263401        0.8955670407       -1.4127672387
 C         -1.9999220499        0.2953287204       -0.7824640992
 O         -0.9024991800        0.7980257505       -1.0888436293
 O         -3.8271460095       -2.1082912404        1.2176646202
 C         -1.1104602195       -1.4650221803        0.8017806998
 C         -0.1078100694       -0.4642434006        1.3187153900
 C         -0.5323278091        0.4882923790        2.2417350005
 C          0.3432054011        1.4384090988        2.7285864407
 C          1.6624141109        1.4539105689        2.3119847403
 C          2.1015153407        0.4979380393        1.4034303898
 C          1.2179974505       -0.4547511105        0.9154751796
 H          1.5753658703       -1.1652259701        0.1903109092
 N          3.4538970706        0.4669893294        1.0201609794
 S          3.9405304502       -0.1162893199       -0.4838674010
 O          3.3344935099        0.6379661806       -1.5577551705
 O          3.7564396701       -1.5455475899       -0.5148961015
 C          5.6831994202        0.2554684600       -0.3850998713
 C          6.4922935404       -0.5687616604        0.3740812282
 C          7.8420242604       -0.2727388005        0.4773258579
 C          8.3583769203        0.8363679498       -0.1763961717
 C          7.5351608101        1.6526649202       -0.9369702211
 C          6.1837424101        1.3627342003       -1.0428875909
 H          5.5068286999        1.9638612505       -1.6286843705
 H          7.9393328100        2.5121069404       -1.4471250609
 H          9.4094903903        1.0641411697       -0.0953620719
 H          8.4858250505       -0.9066723907        1.0652007775
 H          6.0486359905       -1.4239913906        0.8561189979
 H          3.9359771107        1.3291874993        1.2358373197
 H          2.3459862611        2.2008623587        2.6862426905
 H         -0.0035863387        2.1783911485        3.4344235911
 H         -1.5666217090        0.4819871289        2.5593861608
 H         -1.5843600293       -1.9496383507        1.6727108797
 C         -0.4723791798       -2.5776482200       -0.0165298109
 C         -1.2458889201       -3.3255884795       -1.0594367910
 C         -0.1326275702       -2.4094471594       -1.4660366709
 H          0.7912326897       -2.8387123492       -1.8273213313
 H         -0.3782288503       -1.4669400992       -1.9310564704
 H         -1.0933366701       -4.3909659295       -1.1441395815
 H         -2.2610724801       -3.0112822094       -1.2536281306
 H          0.2242380603       -3.1655138803        0.5743458887
