  62
        -98.94296006
 C         -1.5896771626       -0.8283790289        0.8567243504
 C         -2.3870264676       -0.1489381441       -0.0914064871
 C         -2.5448868552        1.3057181637        0.1015270024
 C         -1.8676075927        1.9090435862        1.0928637372
 C         -1.8010002961        3.3781168564        1.4125594011
 C         -0.6385632223        4.0498360594        0.6595207153
 C         -1.0047068873        4.6157922489       -0.7099130917
 H         -1.6874952423        5.4596525832       -0.5857930458
 H         -0.0842517347        4.9950922235       -1.1602066602
 C         -1.6309602225        3.5986692434       -1.6661170210
 H         -1.0815180391        2.6568806637       -1.5958631793
 H         -1.5010367709        3.9695407771       -2.6851734789
 C         -3.1262614412        3.3664145990       -1.4052126428
 H         -3.6791881298        3.4870248194       -2.3396456862
 H         -3.4965191666        4.1345153083       -0.7262313555
 C         -3.4836256472        1.9781628401       -0.8634786895
 H         -4.4757237545        2.0238784667       -0.3992847803
 H         -3.5642974287        1.2764611097       -1.7001998304
 H         -0.2421858724        4.8625710801        1.2722358162
 H          0.1582443267        3.3125001843        0.5280378951
 H         -2.7452199152        3.8666111195        1.1906074004
 H         -1.6128746252        3.4520533956        2.4859315484
 O         -1.0647574290        1.2223350177        1.9535753657
 C         -0.9042107978       -0.1471543503        1.8607354968
 O         -0.1374432375       -0.6366371610        2.7155005304
 O         -2.9491861539       -0.7252199258       -1.0608316702
 C         -1.3131833821       -2.3164164226        0.7056322278
 C         -0.5267674809       -2.4958459748       -0.5711971171
 C         -0.8805895565       -3.3553753560       -1.6012702107
 C         -0.1428682319       -3.3750603546       -2.7736937318
 C          0.9356597152       -2.5282267946       -2.9517134344
 C          1.3066985241       -1.6756769443       -1.9169790571
 C          0.5997504195       -1.6974744446       -0.7283117605
 H          0.8950943201       -1.0419854100        0.0779529256
 N          2.3890364598       -0.7929262564       -2.0437478806
 S          2.3453320975        0.6831972842       -1.2516363659
 O          1.0062213758        1.2128740039       -1.1502746374
 O          3.2922844658        1.5035564268       -1.9806929972
 C          3.0234015829        0.3367727906        0.3565197643
 C          2.4806744733        0.9417113064        1.4713222463
 C          3.0404688735        0.6897378085        2.7134723305
 C          4.1323595093       -0.1568989360        2.8172410209
 C          4.6719491859       -0.7524174465        1.6866975922
 C          4.1163119328       -0.5035080606        0.4426773320
 H          4.5057883049       -0.9492316408       -0.4572440053
 H          5.5211385474       -1.4111786837        1.7724676158
 H          4.5620834916       -0.3551422894        3.7865106676
 H          2.6091199450        1.1448957900        3.5902168267
 H          1.6175499018        1.5790957051        1.3579557247
 H          2.7816706407       -0.7198986401       -2.9707929753
 H          1.4827960997       -2.5184854837       -3.8820384043
 H         -0.4295500144       -4.0426229950       -3.5722108155
 H         -1.7421720620       -3.9939683763       -1.4964979182
 H         -0.6656614205       -2.5917526089        1.5507226093
 C         -2.5838021161       -3.1335205168        0.7703275574
 C         -2.5265737872       -4.5712830965        1.1889586702
 C         -3.1149713063       -3.5456246267        2.1092144192
 H         -4.1835798015       -3.5401296756        2.2627515107
 H         -2.5474809751       -3.2525084209        2.9805754996
 H         -3.1937528072       -5.2739098833        0.7131385024
 H         -1.5595136141       -4.9802673595        1.4394706864
 H         -3.3041501434       -2.8468763582        0.0135892284
