  62
        -98.94680101
 C          1.1895167605        1.1338103396       -0.1729729904
 C          2.0906902105        0.8784230591        0.8948174794
 C          2.9061565296       -0.3367918915        0.7870642493
 C          2.7485222688       -1.1371020315       -0.2825313105
 C          3.5635657078       -2.3664406322       -0.5608964006
 C          4.8025094979       -2.0299936932       -1.4030624109
 C          5.6113635189       -0.8472681237       -0.8702857013
 H          5.0122402795        0.0622938367       -0.9546193712
 H          6.4760182488       -0.7233299344       -1.5259893515
 C          6.0889384791       -1.0055551439        0.5800685686
 H          7.1352726793       -0.6984286246        0.6395445083
 H          6.0435441984       -2.0550412738        0.8732724488
 C          5.3187492100       -0.1610706732        1.5970086887
 H          5.2861673106        0.8781369268        1.2600261086
 H          5.8692070202       -0.1806675535        2.5414297486
 C          3.8843438097       -0.6174071821        1.8927390391
 H          3.5290084403       -0.0520195118        2.7590026792
 H          3.8832129590       -1.6783397421        2.1503670093
 H          4.4770929178       -1.7912850131       -2.4181960909
 H          5.4388219772       -2.9156666936       -1.4502053910
 H          3.8677569577       -2.8179372223        0.3816519894
 H          2.9457104472       -3.0754534818       -1.1140483003
 O          1.8516211187       -0.8827948210       -1.2653515603
 C          1.0507638796        0.2479172996       -1.2418016903
 O          0.2836335694        0.3270304000       -2.2225894801
 H         -1.5999464598        1.1141383215       -1.4031238697
 C         -1.9141644094        1.4255680218       -0.4183975797
 C         -1.0249198187        2.1135134213        0.3951685000
 C         -1.4378937281        2.4730056717        1.6728669301
 C         -2.7079738482        2.1536257727        2.1221481604
 C         -3.5884438389        1.4595599533        1.3108235307
 C         -3.1788007095        1.0884740828        0.0373343707
 N         -4.0465122103        0.3211398433       -0.7777904590
 S         -4.2584822613       -1.2500383764       -0.2325677388
 O         -4.8523173221       -1.9760044661       -1.3317573986
 O         -5.0199261809       -1.2113062957        0.9900899214
 C         -2.6143538516       -1.8604756876        0.0987300609
 C         -2.0402889912       -1.6095887379        1.3290601207
 C         -0.7449237514       -2.0407416888        1.5628209104
 C         -0.0532407421       -2.7190555394        0.5717410103
 C         -0.6412357726       -2.9579697691       -0.6602382895
 C         -1.9315179724       -2.5174496282       -0.9044200392
 H         -2.4229418127       -2.6836322980       -1.8498589191
 H         -0.0957135532       -3.4744475596       -1.4337059696
 H          0.9529800377       -3.0582967701        0.7616363701
 H         -0.2765939610       -1.8433761090        2.5139926703
 H         -2.6130207606       -1.0916078974        2.0807944108
 H         -3.7325599405        0.2848962630       -1.7387544591
 H         -4.5710506190        1.1758271340        1.6512590910
 H         -3.0136402278        2.4420867430        3.1163978205
 H         -0.7471853476        2.9908614913        2.3222869598
 C          0.3745921414        2.4148978002       -0.0813156404
 H          0.8698539321        3.0128726399        0.6951909494
 C          0.3691444417        3.2132864501       -1.3698831705
 C          0.0268020528        4.6710221603       -1.3187987805
 C          1.4347289924        4.2408530493       -1.5995533208
 H          1.8245898922        4.3639796689       -2.5989126509
 H          2.1740047627        4.3776926388       -0.8237538110
 H         -0.1883282867        5.1001882106       -0.3519160105
 H         -0.5532897471        5.0925479306       -2.1252719504
 H          0.0358670911        2.6479233702       -2.2302056603
 O          2.2135141713        1.6422824691        1.8886602793
