  62
        -98.94830647
 C          1.3124084280        1.5610643474        0.2141354454
 C          1.6506419946        0.6011955377        1.1983327666
 C          2.9177009651       -0.1077085279        0.9958649391
 C          3.6769498451        0.1779716693       -0.0778213574
 C          5.0231247582       -0.4157688462       -0.3942547887
 C          4.9618284809       -1.7599408139       -1.1314434747
 C          4.5084912020       -2.9454098790       -0.2789312590
 H          4.7169888404       -3.8519301597       -0.8505930634
 H          5.1075033066       -2.9889049339        0.6313938880
 C          3.0175975911       -2.9252502947        0.0844642612
 H          2.4814569732       -2.2393594051       -0.5760962276
 H          2.5812974856       -3.9128127086       -0.0830516674
 C          2.7140999795       -2.5439049598        1.5331013251
 H          3.0995213894       -3.3149109315        2.2047378900
 H          1.6262397668       -2.5139241393        1.6403694878
 C          3.2843304418       -1.1872065896        1.9683561185
 H          2.8490864050       -0.9273124068        2.9366102658
 H          4.3669763969       -1.2535631642        2.0772144696
 H          5.9651713031       -1.9717766853       -1.5083720115
 H          4.2967384324       -1.6574879699       -1.9921935523
 H          5.5960293972       -0.5312079541        0.5263551663
 H          5.5353684920        0.3045500491       -1.0359102310
 O          3.3064613603        1.0912337324       -1.0141360201
 C          2.1001808289        1.7719196371       -0.9168242405
 O          1.8607476999        2.5266678823       -1.8786876670
 O          0.9288537623        0.3560177309        2.2029735698
 C          0.0015091768        2.3132045423        0.3488013534
 C         -0.9703633685        1.8593887501       -0.7134054011
 C         -1.7883067566        2.7198742329       -1.4343100884
 C         -2.6775017980        2.2173047119       -2.3692497360
 C         -2.7968809634        0.8556440245       -2.5810939078
 C         -1.9879160270       -0.0138413231       -1.8583163392
 C         -1.0772142968        0.4953050847       -0.9478239698
 H         -0.4331165133       -0.1887675203       -0.4175566128
 N         -2.0799580634       -1.4056259131       -2.0138853425
 S         -1.9306620282       -2.3694458267       -0.6504375488
 O         -0.5468304294       -2.4997526229       -0.2749894042
 O         -2.6015958518       -3.6010522355       -1.0125984714
 C         -2.8708271498       -1.5205630081        0.6066124296
 C         -2.2479959712       -0.8877972960        1.6624652297
 C         -3.0274217803       -0.1974179600        2.5786361895
 C         -4.4037174061       -0.1507263628        2.4263354767
 C         -5.0151518005       -0.7991817210        1.3636474805
 C         -4.2430901010       -1.4882901821        0.4440349100
 H         -4.6807985992       -2.0145389884       -0.3888023259
 H         -6.0865422081       -0.7662010548        1.2487898956
 H         -5.0020665066        0.3920575536        3.1409898710
 H         -2.5440884291        0.3038762681        3.4022530147
 H         -1.1739674860       -0.9252115456        1.7625229751
 H         -2.8289223747       -1.7187413438       -2.6137423445
 H         -3.5004232286        0.4672425678       -3.3012706917
 H         -3.2978587057        2.8971955269       -2.9330473412
 H         -1.7244898052        3.7829882298       -1.2709868004
 H         -0.4100068883        2.0002531062        1.3211466842
 C          0.2242079754        3.8097772973        0.3761124208
 C         -0.7168338607        4.6957360635        1.1350968709
 C          0.6660352125        4.4506187191        1.6567899067
 H          1.3883111278        5.2516215413        1.6094585983
 H          0.7837560006        3.8089933536        2.5179594951
 H         -0.9445204988        5.6709946536        0.7321532437
 H         -1.5415339300        4.2252380857        1.6485884301
 H          0.6552622257        4.1848829084       -0.5448011543
