  62
        -98.94307678
 C         -1.8989837752       -1.1201118335        0.3535387389
 C         -2.4675589694       -0.0997258760        1.1598801366
 C         -3.8839538731        0.2072880950        0.9247132797
 C         -4.5596121623       -0.4899216906       -0.0064936222
 C         -5.9915996139       -0.2525963602       -0.3874150474
 C         -6.0999671815        0.7497782713       -1.5448491621
 C         -5.2849396250        2.0259744628       -1.3348427701
 H         -4.2214160812        1.7754111785       -1.3356987965
 H         -5.4627771595        2.6715110160       -2.1976851941
 C         -5.6230033251        2.7901888544       -0.0470917916
 H         -5.7044445570        3.8535735133       -0.2819253727
 H         -6.5931970399        2.4671476552        0.3321073005
 C         -4.5773763145        2.6589726471        1.0621452532
 H         -4.8016790057        3.4034949620        1.8308856400
 H         -3.5866316450        2.8917339046        0.6626599866
 C         -4.5078953574        1.2926014454        1.7559124198
 H         -3.8688765477        1.4001977747        2.6374548848
 H         -5.5053207782        0.9980613407        2.0890090723
 H         -7.1519424139        1.0064910373       -1.6817401893
 H         -5.7462556092        0.2647158309       -2.4574322778
 H         -6.5357847677        0.1168273287        0.4795975677
 H         -6.4259665577       -1.2035671870       -0.7001364106
 O         -3.9904902076       -1.4731625358       -0.7447821405
 C         -2.6508206285       -1.8083108610       -0.5997064195
 O         -2.2846808605       -2.7216925400       -1.3628657164
 O         -1.8196652789        0.5210469620        2.0460055155
 C         -0.4275108375       -1.4339558429        0.5758167437
 C          0.4107918949       -0.7991033472       -0.5082349536
 C          0.4753054129       -1.3277931948       -1.7939358038
 C          1.2301331375       -0.7038254340       -2.7697870765
 C          1.9490383957        0.4433572865       -2.4823143551
 C          1.8895245177        0.9818770497       -1.2031237777
 C          1.1201829633        0.3612318213       -0.2281248006
 H          1.0676526066        0.8037000405        0.7558720940
 N          2.6095499533        2.1474072173       -0.8790170231
 S          3.6236205218        2.1033764465        0.4532898505
 O          2.8519525326        2.0918387112        1.6687083060
 O          4.5181529843        3.2251895221        0.2715170072
 C          4.5147867726        0.5706052396        0.2639560883
 C          5.6010619976        0.5429282705       -0.5888877255
 C          6.2509693822       -0.6606249132       -0.8078721209
 C          5.7980968832       -1.8124614299       -0.1823995476
 C          4.7068230744       -1.7681892365        0.6712538027
 C          4.0564533884       -0.5657115961        0.8988144507
 H          3.2081555610       -0.4867379028        1.5591742819
 H          4.3557153733       -2.6644449833        1.1573240842
 H          6.2992267975       -2.7510952990       -0.3584345892
 H          7.1035924902       -0.6981986744       -1.4665633132
 H          5.9245890590        1.4628464375       -1.0485360231
 H          3.0919552743        2.5590203258       -1.6656675153
 H          2.5428299800        0.9255959517       -3.2440748046
 H          1.2650555489       -1.1198994986       -3.7651531920
 H         -0.0967793545       -2.2108261701       -2.0295712686
 H         -0.1742697862       -0.9376064673        1.5229127618
 C         -0.1497429773       -2.9161967856        0.7229749990
 C          1.0880310612       -3.3559340174        1.4431331457
 C         -0.2560741020       -3.5457408003        2.0781808877
 H         -0.6597684994       -4.5443816405        2.1513033162
 H         -0.5244646218       -2.9061435580        2.9068553510
 H          1.6126661466       -4.2262297857        1.0806021994
 H          1.7285531762       -2.5862321538        1.8463435829
 H         -0.4815766810       -3.5070394081       -0.1200076134
