  62
        -98.94094829
 C          2.3131391905        0.8334282302       -0.1534460004
 C          3.6001339706        1.2088165404        0.3011025392
 C          4.7235853005        0.4615961999       -0.2741713305
 C          4.4885305203       -0.4939532307       -1.1919340598
 C          5.5307747302       -1.3290189112       -1.8853206894
 C          5.9804942802       -2.5570674907       -1.0817265386
 C          6.8659956803       -2.2545708800        0.1278421911
 H          7.2819659703       -3.2058463198        0.4654695617
 H          7.7008599804       -1.6258819603       -0.1830202594
 C          6.1305414305       -1.5934603791        1.3019553507
 H          5.0533986505       -1.7300023891        1.1796378910
 H          6.4118213806       -2.0893579185        2.2337275510
 C          6.4241376107       -0.1032216490        1.4754483697
 H          7.4775043107        0.0357712210        1.7281762195
 H          5.8252983008        0.2694235216        2.3104053995
 C          6.1006165606        0.7512804602        0.2427604092
 H          6.1302930907        1.8032046604        0.5367959985
 H          6.8431579605        0.5842283596       -0.5369522108
 H          5.0927891302       -3.1048334804       -0.7567623081
 H          6.5395088701       -3.2040420712       -1.7616735182
 H          5.0808503900       -1.6739856818       -2.8187154091
 H          6.3967650802       -0.7111324915       -2.1239874099
 O          3.2362828103       -0.8083458909       -1.6209411195
 C          2.1184676104       -0.1717430104       -1.1001241497
 O          1.0346144703       -0.5828017807       -1.5589161093
 O          3.7984885608        2.1202673809        1.1482361085
 C          1.0987812107        1.5485343207        0.4092613592
 C          0.1544770307        0.5531559011        1.0361256100
 C          0.6587556207       -0.3592657783        1.9600240705
 C         -0.1654035093       -1.2996902578        2.5451745913
 C         -1.5095264893       -1.3518199479        2.2198111315
 C         -2.0277453994       -0.4353479885        1.3131482709
 C         -1.1978365794        0.5167113710        0.7358478302
 H         -1.6215367494        1.2112124606        0.0314742198
 N         -3.4043181694       -0.4392824586        1.0160027511
 S         -3.9445508496       -0.1969779796       -0.5653937090
 O         -3.4415477598       -1.2359689302       -1.4373879384
 O         -3.6786021195        1.1624835401       -0.9589655000
 C         -5.6970977096       -0.4095361693       -0.3076862687
 C         -6.4001031794        0.6192673412        0.2903104207
 C         -7.7571685494        0.4587770714        0.5193364910
 C         -8.3855808195       -0.7212599288        0.1493091618
 C         -7.6675024297       -1.7441192692       -0.4512169476
 C         -6.3091981997       -1.5902744195       -0.6819524878
 H         -5.7118277498       -2.3546229099       -1.1527362874
 H         -8.1590592698       -2.6589779594       -0.7406360969
 H         -9.4422243895       -0.8433885686        0.3278156520
 H         -8.3195000093        1.2524539718        0.9841596805
 H         -5.8709336593        1.5202650213        0.5528582600
 H         -3.8658532694       -1.2549519783        1.3984513917
 H         -2.1519545193       -2.0953287776        2.6673012420
 H          0.2415647007       -2.0054088974        3.2539349917
 H          1.7120172107       -0.3251767882        2.2048191604
 H          1.4871666808        2.2040946412        1.2035075787
 C          0.4535345706        2.4090356200       -0.6560290413
 C         -0.3051679592        3.6429743703       -0.2721999320
 C          1.0274601207        3.7620682898       -0.9468102123
 H          1.0612410306        4.0977555291       -1.9724462525
 H          1.8747885708        4.0764311801       -0.3550236826
 H         -1.1938436293        3.8917526700       -0.8327609221
 H         -0.3644340691        3.8842588810        0.7783560178
 H          0.0894460505        1.8284872895       -1.4978012009
