  62
        -98.94486732
 C         -0.9969610807       -1.1755474596       -0.2846448592
 C         -2.0424028308       -1.3287175882        0.6645025309
 C         -2.9330414902       -0.1779159876        0.8530536198
 C         -2.7097605897        0.9435346716        0.1444763087
 C         -3.5701359091        2.1720122120        0.1904927075
 C         -4.6785855091        2.1153419115       -0.8701262825
 C         -5.4613352297        0.8024719418       -0.8785027012
 H         -6.2347863297        0.8893584314       -1.6448121613
 H         -4.7956696501       -0.0076353288       -1.1851567304
 C         -6.1112226699        0.4419830035        0.4646524791
 H         -6.1690237796        1.3276019241        1.0983766782
 H         -7.1346689201        0.1083529637        0.2803096494
 C         -5.4069583105       -0.6815337161        1.2275952302
 H         -6.0624026106       -1.0026698250        2.0416284905
 H         -5.2639253809       -1.5398474068        0.5661665511
 C         -4.0512984503       -0.3191590361        1.8472375999
 H         -4.1519690399        0.5885263145        2.4454505790
 H         -3.7603093507       -1.1385647056        2.5108758707
 H         -5.3638968888        2.9474542220       -0.6986051533
 H         -4.2229931591        2.2469391303       -1.8542019326
 H         -4.0067382591        2.2662603232        1.1827243374
 H         -2.9396280987        3.0392986415       -0.0067769134
 O         -1.6925201296        1.0627750803       -0.7423983714
 C         -0.8144036501        0.0158216896       -0.9881293504
 O          0.0520136900        0.2929418884       -1.8406979306
 O         -2.2247537513       -2.3898640575        1.3200868820
 C         -0.0816460612       -2.3735630902       -0.4709521980
 C          1.1502558388       -2.2584161899        0.3954834719
 C          1.4868173583       -3.2643969492        1.2932287029
 C          2.6198543084       -3.1529742590        2.0795581228
 C          3.4319383289       -2.0378173594        1.9882837918
 C          3.0989583494       -1.0210540501        1.0981056108
 C          1.9665531693       -1.1395139804        0.3058231308
 H          1.7246142397       -0.3581237510       -0.3961181199
 N          3.8709522499        0.1411208294        1.0336984896
 S          3.8102381204        1.2290384482       -0.2238781214
 O          3.8629980602        0.5735276270       -1.5092759908
 O          4.9112928208        2.1306668080        0.0538169177
 C          2.2882635708        2.1250506091       -0.0053335523
 C          1.7666020109        2.2810708506        1.2631861875
 C          0.6248267312        3.0480985813        1.4267926267
 C          0.0348259415        3.6523114405        0.3277138061
 C          0.5680875115        3.4828003390       -0.9391922337
 C          1.7056134811        2.7105554183       -1.1101757529
 H          2.1391556911        2.5373353172       -2.0820037228
 H          0.0983858717        3.9376501284       -1.7965713242
 H         -0.8478701482        4.2583873610        0.4607453655
 H          0.1981379713        3.1712200225        2.4095897666
 H          2.2471265306        1.7989060412        2.0986595680
 H          4.7421795699        0.1434904695        1.5401694097
 H          4.3138506289       -1.9469409392        2.6033998117
 H          2.8728745880       -3.9412764484        2.7721044236
 H          0.8480086879       -4.1306392088        1.3808065438
 H         -0.6602568416       -3.2369406896       -0.1137977372
 C          0.3192898487       -2.6302044118       -1.9102673977
 C          0.6735719481       -4.0241898324       -2.3298413664
 C         -0.6035631016       -3.3996376923       -2.8046738970
 H         -0.6838333115       -3.1019257532       -3.8393055473
 H         -1.5317050418       -3.7527226814       -2.3788374567
 H          1.4762728780       -4.1579920435       -3.0387513362
 H          0.6085597177       -4.8045582016       -1.5867479456
 H          0.8780177391       -1.8152856125       -2.3528362885
