  62
        -98.94146163
 C         -1.8271405492       -1.3640186907        0.3873200503
 C         -1.5613387495       -0.1014697208       -0.1995402602
 C         -2.3999167700        1.0093688391        0.2767361992
 C         -3.3280133600        0.7974567292        1.2261474191
 C         -4.2539999904        1.8301365292        1.8093560886
 C         -5.5100826004        2.0875895584        0.9652613783
 C         -5.2784619105        2.8686659079       -0.3292113121
 H         -6.2605068806        3.1674704874       -0.7012147423
 H         -4.7241346108        3.7811634881       -0.1070882224
 C         -4.5549883301        2.0772812876       -1.4279014916
 H         -4.6052278498        1.0099508577       -1.2000621011
 H         -5.0689322401        2.2244211870       -2.3803544617
 C         -3.0927952802        2.4715470680       -1.6359386116
 H         -2.6702202999        1.8218015877       -2.4063057213
 H         -3.0388910705        3.5014721878       -1.9953731321
 C         -2.2236306703        2.3462817388       -0.3782363815
 H         -2.4578213007        3.1474016791        0.3226493881
 H         -1.1751523303        2.4365797491       -0.6726309114
 H         -5.9777842401        1.1276841081        0.7334349887
 H         -6.2078774607        2.6542800685        1.5861639379
 H         -4.5665880304        1.4517099196        2.7851899987
 H         -3.7151867707        2.7666532495        1.9577264982
 O         -3.5204638097       -0.4212706606        1.7984803597
 C         -2.7813062593       -1.5232172505        1.3951332003
 O         -3.0531918890       -2.5727053703        2.0126332608
 O         -0.6746524695        0.1062396590       -1.0643466202
 C         -1.0470673687       -2.6066533706       -0.0040987890
 C          0.4325556112       -2.3098949501       -0.0845711090
 C          1.2537132415       -2.7729687503       -1.1047787186
 C          2.6090238514       -2.4894142399       -1.1017003486
 C          3.1724687510       -1.7219084292       -0.1001611489
 C          2.3551186607       -1.2317048590        0.9110327508
 C          1.0064369008       -1.5490319795        0.9267595808
 H          0.3793758606       -1.1753720793        1.7277389705
 N          2.9025964203       -0.4036861084        1.9043011004
 S          4.0196680200        0.7543441118        1.4409935200
 O          5.3386836002        0.1688303922        1.4441925305
 O          3.8256690695        1.8520767921        2.3645237395
 C          3.6012460100        1.2534453609       -0.2216552903
 C          4.5957144001        1.2790186207       -1.1792537302
 C          4.2747756701        1.6635806300       -2.4707594604
 C          2.9682901101        2.0055166494       -2.7834561007
 C          1.9820680400        1.9782872796       -1.8100552708
 C          2.2992624299        1.6053027703       -0.5145230506
 H          1.5406071399        1.5681692204        0.2510971694
 H          0.9598721799        2.2183628091       -2.0534560110
 H          2.7137268001        2.2923119289       -3.7915904209
 H          5.0407552402        1.6867105899       -3.2291330703
 H          5.5943963002        0.9893785312       -0.8946136599
 H          2.2205576801       -0.0174315983        2.5399434502
 H          4.2256702209       -1.4918013189       -0.0841007889
 H          3.2343520016       -2.8645354301       -1.8971391384
 H          0.8345063617       -3.3485054409       -1.9128903084
 H         -1.1953544286       -3.3080174902        0.8345116413
 C         -1.5855780684       -3.3001830414       -1.2494550887
 C         -2.9625565784       -3.0168371721       -1.7701149490
 C         -1.7624472985       -2.5638485120       -2.5425857191
 H         -1.5239014882       -3.0749297724       -3.4637574488
 H         -1.5204149488       -1.5131022119       -2.5468369996
 H         -3.5429682581       -3.8439608724       -2.1513058687
 H         -3.5541737487       -2.2731596220       -1.2556446994
 H         -1.2600549580       -4.3335516813       -1.3154373482
