  62
        -98.93693031
 C          2.1324383817        1.3488707189        0.0279663626
 C          2.9088388239        0.6352409772        0.9674185597
 C          3.6868455016       -0.5082387009        0.4552222884
 C          3.6195997665       -0.8072532261       -0.8547594067
 C          4.3026882472       -1.9219884565       -1.6066068601
 C          5.7782134440       -2.1854926746       -1.2687134528
 C          6.0042938128       -3.4920029814       -0.5056516448
 H          5.3405512406       -4.2545473438       -0.9188098071
 H          7.0301050285       -3.8245403122       -0.6789548965
 C          5.7961419069       -3.4068286908        1.0053629156
 H          5.8481796390       -4.4226466367        1.4040773911
 H          6.6156661907       -2.8398152599        1.4520240010
 C          4.4754629294       -2.7739114203        1.4479416362
 H          4.2598215364       -3.1239033507        2.4598434238
 H          3.6571394902       -3.1146643908        0.8138080088
 C          4.5106107528       -1.2383560989        1.4809885777
 H          4.1299402106       -0.8829265612        2.4437340046
 H          5.5446047735       -0.8876731614        1.4189294840
 H          6.1869444414       -1.3443197955       -0.7113134509
 H          6.3273319400       -2.2469000250       -2.2096066977
 H          4.2058256968       -1.6507235796       -2.6604199565
 H          3.7204134041       -2.8370760084       -1.4691484743
 O          2.8416686336       -0.0991843227       -1.7236574739
 C          2.0732451833        0.9774813442       -1.3146142116
 O          1.4049054980        1.5073468327       -2.2213587436
 O          2.9427415047        0.9313860800        2.1937171729
 C          1.2864935875        2.5172566639        0.5025743768
 C         -0.1711261995        2.2006859351        0.2724589960
 C         -1.0500381254        3.0419253473       -0.3954145190
 C         -2.3658936565        2.6608292150       -0.5975760887
 C         -2.8346197357        1.4453103761       -0.1348829938
 C         -1.9654498155        0.5994335588        0.5423422313
 C         -0.6504597836        0.9844950168        0.7451088721
 H          0.0277423126        0.3208371314        1.2684785056
 N         -2.4339076081       -0.6368388201        1.0280110065
 S         -3.1581164496       -1.6721828917       -0.0816815160
 O         -2.9839118057       -2.9984589795        0.4712486985
 O         -2.6503499351       -1.4614268332       -1.4178578269
 C         -4.8814817000       -1.2325924808       -0.0010065778
 C         -5.5070756863       -1.2740404495        1.2298049696
 C         -6.8489885938       -0.9379331680        1.3091622858
 C         -7.5391159306       -0.5715858726        0.1630666265
 C         -6.8974003617       -0.5387192882       -1.0655329638
 C         -5.5544806664       -0.8723744842       -1.1518280403
 H         -5.0109024592       -0.8543674507       -2.0831439590
 H         -7.4351535981       -0.2541212986       -1.9556499242
 H         -8.5834029318       -0.3098547572        0.2276684025
 H         -7.3514587418       -0.9621172674        2.2626565494
 H         -4.9349810768       -1.5670268556        2.0941570629
 H         -1.7423088926       -1.1395629062        1.5664723675
 H         -3.8562054472        1.1429957743       -0.2980369688
 H         -3.0358601017        3.3208559577       -1.1270764445
 H         -0.7025315562        3.9900071786       -0.7710594510
 H          1.4561726222        2.5790733072        1.5877621019
 C          1.7432552288        3.8102775081       -0.1371568634
 C          1.5117898492        5.1162286540        0.5608740993
 C          2.8960338934        4.5501431363        0.4702960739
 H          3.6079120909        5.0245662101       -0.1882799343
 H          3.3391888282        4.1315121511        1.3621572625
 H          1.2747147473        5.9844169274       -0.0350967718
 H          1.0151959670        5.0886846113        1.5188373015
 H          1.6790932073        3.7855057319       -1.2190717563
