  62
        -98.94006831
 C         -2.3343098501       -0.4691620902        0.3425478002
 C         -3.5150531402       -0.4919763300        1.1292995900
 C         -4.5094791202        0.5497691699        0.8428529394
 C         -4.2329356901        1.4814949896       -0.0870429808
 C         -5.1719690300        2.5706449694       -0.5158131513
 C         -6.0361117798        2.1220980990       -1.7027377114
 C         -6.6986698298        0.7587306291       -1.5042434310
 H         -5.9248519598       -0.0115542909       -1.4655368906
 H         -7.3046309196        0.5594468087       -2.3907500111
 C         -7.5783484900        0.6565225094       -0.2502560212
 H         -8.5143169099        0.1621027193       -0.5186970612
 H         -7.8308217001        1.6553860696        0.1073403485
 C         -6.9616773702       -0.1496229702        0.8945167592
 H         -6.6237913201       -1.1192901203        0.5195596896
 H         -7.7428761503       -0.3408874499        1.6349962291
 C         -5.7913912104        0.5195161401        1.6263685792
 H         -5.5799996505       -0.0688059996        2.5241610595
 H         -6.0783743204        1.5266112202        1.9354721688
 H         -5.4028568296        2.0685867087       -2.5913646312
 H         -6.8029086698        2.8789929989       -1.8772220917
 H         -4.5797749600        3.4369475993       -0.8152065515
 H         -5.8055707802        2.8483896297        0.3242933384
 O         -3.0681604999        1.5074215894       -0.7804386006
 C         -2.0916359799        0.5344765095       -0.5971306801
 O         -1.0906529198        0.6908692993       -1.3192905900
 O         -3.7254765204       -1.3447069197        2.0328794502
 C         -1.2987244501       -1.5467524601        0.6123386507
 C          0.0646929098       -0.9283275900        0.7843029608
 C          0.3244744696       -0.1830869796        1.9310383606
 C          1.5554914096        0.4140541405        2.1223781606
 C          2.5541969097        0.2834055902        1.1732337608
 C          2.3063464200       -0.4580127102        0.0268082510
 C          1.0705154800       -1.0646979703       -0.1585152790
 H          0.8842218702       -1.6209315606       -1.0642894588
 N          3.3102126902       -0.5789423805       -0.9477954187
 S          4.8511714001       -1.0334958003       -0.4725927783
 O          5.4440440803       -1.6464834906       -1.6414282980
 O          4.8176899199       -1.8389263399        0.7264527719
 C          5.6768406800        0.5102335199       -0.1482129287
 C          5.7406343501        1.4400132695       -1.1674012090
 C          6.3854266801        2.6442561596       -0.9352250192
 C          6.9543909098        2.8962322300        0.3043996208
 C          6.8846883897        1.9512101304        1.3163883811
 C          6.2406899997        0.7445528903        1.0904756714
 H          6.1588187796       -0.0180492795        1.8486781216
 H          7.3278887795        2.1490231807        2.2791824411
 H          7.4552080898        3.8348027201        0.4823316306
 H          6.4415825602        3.3815085494       -1.7199191395
 H          5.2888168103        1.2048134992       -2.1166762690
 H          3.0179678403       -1.0724761208       -1.7782120386
 H          3.5151184497        0.7513952003        1.3117849109
 H          1.7399747794        0.9905955908        3.0162033904
 H         -0.4579951205       -0.0735547894        2.6697702504
 H         -1.5998362103       -1.9729327298        1.5838200008
 C         -1.3147670899       -2.6978358504       -0.3824333189
 C         -2.6032773098       -3.1628092307       -0.9904081190
 C         -1.5643344896       -2.5074642009       -1.8475296690
 H         -1.0134473195       -3.1245000011       -2.5430865287
 H         -1.7429213096       -1.5047738110       -2.2026941894
 H         -2.7695238597       -4.2239435507       -1.0991327387
 H         -3.4954931998       -2.6025426906       -0.7515157293
 H         -0.6044998599       -3.4730688703       -0.1087112985
