  62
        -98.94565401
 C          1.1308464921        1.4389039769        0.7552068825
 C          2.0262388805        1.4103083771       -0.3407073502
 C          3.0033859209        0.3122231528       -0.3385752308
 C          2.9732684652       -0.5978582644        0.6519056608
 C          3.8778509905       -1.7921108978        0.7418238213
 C          3.2660624930       -3.0170583903        0.0482277311
 C          2.7268019290       -2.7347211564       -1.3535542095
 H          2.3435435376       -3.6771633630       -1.7496852612
 H          1.8796192616       -2.0486253417       -1.2792045583
 C          3.7633229497       -2.1609409257       -2.3295421369
 H          4.7700314150       -2.3526822671       -1.9560798226
 H          3.6686558550       -2.6786793893       -3.2864031775
 C          3.6074569289       -0.6665523129       -2.6152726329
 H          4.2408897068       -0.4154564333       -3.4703891029
 H          2.5741651912       -0.4513177375       -2.8996179166
 C          3.9950286794        0.2733007456       -1.4670392082
 H          4.9900237032        0.0148483519       -1.0988400625
 H          4.0302181656        1.2901912746       -1.8688706629
 H          4.0264887185       -3.7983664017       -0.0030509074
 H          2.4396537920       -3.3797425057        0.6607007319
 H          4.8363857203       -1.5454454692        0.2888408722
 H          4.0351431217       -2.0242487250        1.7963718316
 O          2.0806928011       -0.5512703788        1.6744717613
 C          1.1400273222        0.4626885269        1.7516202764
 O          0.3806331751        0.3870940391        2.7384441323
 O          2.0191130336        2.2569834472       -1.2719229349
 C          0.0586474180        2.5125836479        0.8323372786
 C         -0.8831325030        2.3248563695       -0.3329630976
 C         -1.1559905232        3.3018895651       -1.2799957994
 C         -2.0051698176        3.0275967485       -2.3387437306
 C         -2.6122560620        1.7915563109       -2.4613434191
 C         -2.3554130194        0.8100947718       -1.5099692032
 C         -1.4904962330        1.0814072344       -0.4638507462
 H         -1.2859218316        0.3156179869        0.2711465448
 N         -2.9452478891       -0.4611833168       -1.5947960225
 S         -3.5335131341       -1.1716457749       -0.1951027941
 O         -4.5260669716       -2.1165935565       -0.6641755173
 O         -4.0021952564       -0.1765645654        0.7409559206
 C         -2.1696331819       -2.0879504639        0.4872066520
 C         -1.8285838634       -1.9137895960        1.8130828446
 C         -0.8134999281       -2.6870710159        2.3528406715
 C         -0.1658054647       -3.6211699126        1.5608289977
 C         -0.5144095361       -3.7797078561        0.2274010945
 C         -1.5270663500       -3.0081595759       -0.3178782760
 H         -1.8321032450       -3.1083391072       -1.3463048337
 H         -0.0017008199       -4.5036381744       -0.3855792095
 H          0.6129455991       -4.2319189887        1.9910849000
 H         -0.5295479628       -2.5446306580        3.3829774827
 H         -2.3486338636       -1.1707556329        2.3969228882
 H         -3.5860885897       -0.5795586792       -2.3664891994
 H         -3.2779902495        1.5827253908       -3.2851586039
 H         -2.2019273060        3.7911205433       -3.0761270926
 H         -0.6963007908        4.2727672776       -1.1977514483
 H         -0.5071136579        2.3142848799        1.7545530531
 C          0.6681668428        3.8945179286        0.9205352189
 C         -0.1184886446        5.0190390043        1.5218554228
 C          1.0450308009        4.4365597298        2.2651488062
 H          1.9486144888        5.0212364920        2.3506286700
 H          0.8442692134        3.8153262739        3.1261263956
 H         -0.0134928776        6.0070780706        1.0999030867
 H         -1.1122101961        4.7966626534        1.8811112448
 H          1.3281171566        4.1165224296        0.0905549570
