  62
        -98.94482792
 C          2.0141444083        1.3750798386        0.2807855005
 C          2.6252669909        0.7364931514       -0.8256088322
 C          3.7702589301       -0.1261816832       -0.5071566576
 C          4.1843376052       -0.2490802844        0.7670747660
 C          5.3515646324       -1.0705692048        1.2436061744
 C          5.0205599421       -2.5515037776        1.4742924134
 C          4.8055304057       -3.3756202758        0.2041060256
 H          5.6536042408       -3.2353840805       -0.4667048339
 H          4.7954638290       -4.4262133928        0.5011928742
 C          3.5004065182       -3.0613092398       -0.5410621346
 H          3.0016233255       -3.9939920892       -0.8146048488
 H          2.8216747626       -2.5216911837        0.1238866530
 C          3.6818472529       -2.2508703567       -1.8247312739
 H          2.6927933333       -2.0523411713       -2.2463753146
 H          4.2460832809       -2.8389292171       -2.5518954276
 C          4.3919778365       -0.9051192469       -1.6263225316
 H          5.4540083735       -1.0632212568       -1.4402287766
 H          4.2782162978       -0.3200776642       -2.5421026699
 H          5.8537165065       -2.9892668410        2.0288703276
 H          4.1311616917       -2.6171720654        2.1055746081
 H          6.1730592839       -0.9869874435        0.5317655107
 H          5.6693199115       -0.6373650434        2.1944861897
 O          3.5766133369        0.3935908189        1.8003116348
 C          2.4640313354        1.1933628346        1.5875544897
 O          1.9708088560        1.6760680608        2.6280246318
 H         -0.0424145669       -0.1608202827        0.7356110179
 C         -0.6035795826        0.2202000664       -0.1094361607
 C         -0.2975016405        1.4805324977       -0.6093119594
 C         -1.0383936076        1.9641402246       -1.6791693607
 C         -2.0305806286        1.1875447041       -2.2537477344
 C         -2.3126342584       -0.0765632312       -1.7714339087
 C         -1.5934231117       -0.5605350858       -0.6852413186
 N         -1.8867333235       -1.8352773259       -0.1720443351
 S         -3.4967179977       -2.2468525132        0.0268520841
 O         -3.5109026110       -3.2076894987        1.1076939103
 O         -4.0388644207       -2.7054871987       -1.2277948697
 C         -4.3108678280       -0.7368856869        0.5179803466
 C         -3.8826688714       -0.1125445076        1.6728580977
 C         -4.4803423015        1.0780612605        2.0523689204
 C         -5.4915229904        1.6214146656        1.2744500223
 C         -5.9143666163        0.9794718517        0.1211167042
 C         -5.3182887544       -0.2106252531       -0.2645124033
 H         -5.6132167271       -0.7410284049       -1.1552059336
 H         -6.7021860349        1.4032464364       -0.4804128237
 H         -5.9516968002        2.5504767007        1.5715367433
 H         -4.1516530407        1.5779840552        2.9494804060
 H         -3.0967390775       -0.5615767465        2.2593317383
 H         -1.3391975422       -2.0908249054        0.6359451962
 H         -3.0668741192       -0.7011343411       -2.2218383347
 H         -2.5887142873        1.5708875142       -3.0940146471
 H         -0.8316933438        2.9454322817       -2.0727524387
 C          0.8041620907        2.2650548000        0.0623598520
 H          0.4543347563        2.5554793218        1.0639360115
 C          1.2061244835        3.5142166841       -0.6939786924
 C          0.4663404072        4.7994718419       -0.4795142159
 C          1.8547305541        4.6350367764        0.0595016775
 H          2.6617468654        5.1750456993       -0.4125238809
 H          1.9814904816        4.5069496299        1.1249809388
 H          0.3216136903        5.4582405310       -1.3224181370
 H         -0.3524017907        4.7943724185        0.2238236369
 H          1.5821660856        3.2955419298       -1.6867102792
 O          2.2381050432        0.8766812393       -2.0139226158
