  62
        -98.93955027
 C         -2.2794300304       -0.8923382135        0.6413044981
 C         -3.4244396280       -0.8954053632       -0.1930105937
 C         -4.4392546354        0.1282347059        0.1030606162
 C         -4.2358544031        0.9965923565        1.1091228139
 C         -5.1581849174        2.1230682509        1.4733945323
 C         -4.7851452261        3.4121635286        0.7279842093
 C         -4.5904731516        3.2225572301       -0.7764686860
 H         -4.3617368995        4.2029789084       -1.2000238516
 H         -3.7162393227        2.5890226039       -0.9449512316
 C         -5.8013125712        2.6208363380       -1.5033222658
 H         -5.9731536790        3.1850134285       -2.4223419590
 H         -6.6939645142        2.7272106670       -0.8859486424
 C         -5.6347553416        1.1543047090       -1.9050292499
 H         -6.4433266246        0.8967201885       -2.5941763388
 H         -4.6921412802        1.0267162149       -2.4430790965
 C         -5.6735924132        0.1402751554       -0.7550177581
 H         -6.5633835286        0.3085019948       -0.1453286081
 H         -5.7412963985       -0.8584880956       -1.1955888335
 H         -3.8523030292        3.7965505847        1.1474436167
 H         -5.5680042118        4.1518366834        0.9054097010
 H         -6.1815122421        1.8377494145        1.2372172114
 H         -5.0776297845        2.2986849426        2.5474549636
 O         -3.1258091577        0.9704884499        1.8913105398
 C         -2.1306327392        0.0330274289        1.6794718724
 O         -1.1767291690        0.1160873224        2.4812275436
 H          1.4353167634       -1.0950623201        0.7191041777
 C          1.1083636026       -1.0998064692       -0.3101603472
 C         -0.1946850409       -1.4631948560       -0.6199608851
 C         -0.5994541993       -1.4418011399       -1.9507265095
 C          0.2842840949       -1.0573516554       -2.9421217120
 C          1.5814481937       -0.6912971130       -2.6297852571
 C          1.9983720102       -0.7161408454       -1.3036721177
 N          3.3274719404       -0.3981517879       -0.9730420620
 S          3.6639290782        0.3759113719        0.4883161549
 O          3.5862013569       -0.5898826717        1.5550563494
 O          2.8494375844        1.5633721407        0.6238891512
 C          5.3694578466        0.8180312886        0.2117077345
 C          5.6972752122        2.1179407575       -0.1228636075
 C          7.0261071149        2.4345300237       -0.3594996749
 C          7.9983446629        1.4507732487       -0.2609514839
 C          7.6539807116        0.1500930421        0.0766586997
 C          6.3279337756       -0.1726527696        0.3159943173
 H          6.0137125022       -1.1661373464        0.5900731577
 H          8.4128273544       -0.6115837461        0.1549851468
 H          9.0313609185        1.6998189871       -0.4455959433
 H          7.2969373771        3.4453352549       -0.6187830096
 H          4.9082482288        2.8505392298       -0.1806057593
 H          3.8188026097        0.0471173304       -1.7368122804
 H          2.2689156001       -0.3916649928       -3.4063672302
 H         -0.0420159193       -1.0386648820       -3.9711169745
 H         -1.6148626291       -1.7124623996       -2.1952006470
 C         -1.1335111632       -1.8806737866        0.4873456200
 H         -0.5713531755       -1.8267517357        1.4302533698
 C         -1.5967750921       -3.3117186629        0.2906392866
 C         -0.6439360369       -4.4249960769        0.6003744634
 C         -1.8245389386       -4.1783572048        1.4902917552
 H         -2.6440393086       -4.8808765690        1.4698542179
 H         -1.6478455911       -3.7413378423        2.4628885274
 H          0.3344278274       -4.1551009038        0.9701047344
 H         -0.6505032886       -5.2994981698       -0.0317441148
 H         -2.2670544790       -3.4374778879       -0.5487652899
 O         -3.6170606549       -1.7017137186       -1.1407552026
