  62
        -98.94231975
 C          1.9236080596        0.6100289034        0.0554204085
 C          2.9624122032        0.4909600358        1.0161741724
 C          4.0702795389       -0.4113587588        0.6793267763
 C          4.0370766911       -1.0815568886       -0.4863796529
 C          5.1211853050       -1.9905127106       -0.9867406074
 C          6.1398638020       -1.2226228016       -1.8407450107
 C          6.6482759695        0.0630370567       -1.1883932971
 H          7.3826251648        0.5032793839       -1.8663976853
 H          5.8213374537        0.7720629720       -1.1059722382
 C          7.2836271061       -0.1353739640        0.1948852028
 H          8.2112354885        0.4391277100        0.2398871624
 H          7.5459378408       -1.1846406564        0.3351671345
 C          6.4142698094        0.3299816247        1.3645930880
 H          6.0719675220        1.3518836130        1.1829647458
 H          7.0358070645        0.3484161251        2.2637591725
 C          5.1894655267       -0.5402464838        1.6738057980
 H          5.4955358259       -1.5835681325        1.7754830823
 H          4.7785824246       -0.2078413451        2.6316079231
 H          5.6680774909       -0.9613299082       -2.7908645870
 H          6.9822829807       -1.8841502578       -2.0507599870
 H          4.6626338169       -2.7704257995       -1.5971943363
 H          5.6191784269       -2.4542238668       -0.1373444429
 O          3.0165002326       -0.9662495299       -1.3706554549
 C          1.9374628148       -0.1214542771       -1.1328037761
 O          1.0897090973       -0.1363182202       -2.0450584288
 O          2.9636697807        1.1223608688        2.1066642019
 C          0.7997932718        1.5752243437        0.3919086556
 C         -0.3773777906        0.8716800639        1.0170837198
 C         -0.9450105249        1.3417830966        2.1955301632
 C         -2.0368972549        0.7023561721        2.7571926981
 C         -2.5872805757       -0.4137150413        2.1535892091
 C         -2.0290418369       -0.8895164505        0.9737912253
 C         -0.9334059731       -0.2482979265        0.4138184749
 H         -0.5071659795       -0.6213676617       -0.5057421991
 N         -2.5886831229       -2.0163178850        0.3416433764
 S         -4.2383813434       -1.9767817751        0.0479327816
 O         -4.9460033355       -2.2639427809        1.2707127389
 O         -4.4575672040       -2.8980667681       -1.0437121591
 C         -4.5631762761       -0.3004007009       -0.4647780586
 C         -4.1273614691        0.0889948264       -1.7159142910
 C         -4.3066045985        1.4054957145       -2.1084880009
 C         -4.9057024276        2.3078287049       -1.2428609638
 C         -5.3402189536        1.9004282533        0.0087222942
 C         -5.1685524984        0.5837168459        0.4051521485
 H         -5.4962058770        0.2251939667        1.3668506815
 H         -5.8074156996        2.6040614536        0.6785839990
 H         -5.0324622760        3.3343304017       -1.5478139205
 H         -3.9688100689        1.7236032315       -3.0815884278
 H         -3.6632475218       -0.6392844360       -2.3623574066
 H         -2.0888473911       -2.2905596333       -0.4920853048
 H         -3.4344456600       -0.9280960399        2.5772693174
 H         -2.4632307273        1.0752857212        3.6757084289
 H         -0.5153801853        2.2066266597        2.6792033409
 H          1.2290072916        2.2377794004        1.1600064243
 C          0.3999878950        2.4547798553       -0.7860167341
 C         -0.8771297887        2.2988295117       -1.5494194176
 C         -0.6949311014        3.4693311152       -0.6338211500
 H         -0.5541575572        4.4494375157       -1.0630505481
 H         -1.2488374057        3.4644004439        0.2926137723
 H         -0.8402727033        2.4570647459       -2.6162251184
 H         -1.5616918369        1.5208310472       -1.2510812459
 H          1.2666043686        2.7587509674       -1.3654195975
