  62
        -98.94949249
 C         -1.6032165623       -0.8290910467       -0.7210128381
 C         -1.4682693939       -1.6573805061        0.4187071826
 C         -0.4555850769       -2.7191921990        0.3228407828
 C          0.2931937821       -2.8193564720       -0.7898196875
 C          1.3547539491       -3.8556819852       -1.0231259373
 C          2.7437823807       -3.3785886587       -0.5797438185
 C          2.7820537232       -2.7875425776        0.8296642510
 H          3.8235673840       -2.5399076404        1.0504521502
 H          2.2249216858       -1.8480776061        0.8556241306
 C          2.2351046712       -3.7122015352        1.9255324821
 H          2.2229084581       -4.7451201855        1.5739418430
 H          2.9086582819       -3.6678851564        2.7840889917
 C          0.8437386426       -3.3259432309        2.4318548426
 H          0.6633699617       -3.8533506996        3.3728733031
 H          0.8233890557       -2.2532541507        2.6443758117
 C         -0.3230264889       -3.6539963184        1.4912045535
 H         -0.2430438620       -4.6897676389        1.1523433843
 H         -1.2501821582       -3.5494398454        2.0626573640
 H          3.4294525783       -4.2267814107       -0.6350602782
 H          3.0936647924       -2.6166955803       -1.2805734393
 H          1.0855984169       -4.7618750540       -0.4833811264
 H          1.3832602879       -4.0769435061       -2.0918806571
 O          0.1722933839       -1.9694831826       -1.8424719881
 C         -0.7694946432       -0.9517953099       -1.8311812584
 O         -0.7669835718       -0.2376138708       -2.8541761090
 O         -2.1736020830       -1.5354099733        1.4546477629
 C         -2.6232094791        0.2972334062       -0.7278277984
 C         -2.2932528558        1.2621641962        0.3849075006
 C         -3.2193619139        1.7503104495        1.2964217808
 C         -2.8146169909        2.6001804692        2.3121345698
 C         -1.4878103498        2.9647314156        2.4497389387
 C         -0.5560518117        2.4917511923        1.5322737586
 C         -0.9712316446        1.6730716926        0.4967266495
 H         -0.2480061660        1.3107460800       -0.2192434106
 N          0.8013792993        2.8359094285        1.6200412875
 S          1.9519672959        1.7006476650        1.1797649678
 O          1.5296903723        0.3557628264        1.4902170291
 O          3.1645556076        2.1486286521        1.8342607167
 C          2.1376826055        1.9192812430       -0.5763081425
 C          2.2460495919        0.8102168820       -1.3902314817
 C          2.4036207216        0.9889457105       -2.7548409219
 C          2.4550922249        2.2710171099       -3.2783697130
 C          2.3543167785        3.3763350108       -2.4468385838
 C          2.1955141788        3.2030932624       -1.0815858836
 H          2.1077310415        4.0367644532       -0.4049951042
 H          2.3936026410        4.3714261304       -2.8600068447
 H          2.5697696647        2.4065132687       -4.3422256432
 H          2.4662397489        0.1274201097       -3.4001209812
 H          2.1822175594       -0.1716043974       -0.9471252808
 H          1.0642801513        3.3432933585        2.4524174269
 H         -1.1715446976        3.6036847454        3.2601501980
 H         -3.5415342395        2.9688971118        3.0199769099
 H         -4.2532155847        1.4555621723        1.2222704716
 H         -2.4894285382        0.8217137250       -1.6854860689
 C         -4.0320868906       -0.2522345998       -0.6626685271
 C         -5.1685451888        0.5196561428       -1.2612236871
 C         -4.6801829827       -0.7314375791       -1.9255936963
 H         -5.2986943351       -1.6153445573       -1.8842898052
 H         -4.1115784930       -0.6391442214       -2.8396399767
 H         -6.1273769886        0.4937528159       -0.7658975965
 H         -4.9386293364        1.4641106018       -1.7306305180
 H         -4.2159247517       -0.8212138186        0.2412539135
