  62
        -98.94044644
 C         -2.4731023666       -1.2191766894        0.0062163154
 C         -2.4357019911        0.0015010668       -0.7091663965
 C         -3.7401843783        0.6270163207       -0.9727668356
 C         -4.8627710871        0.0149558302       -0.5530039911
 C         -6.2499850705        0.5666884122       -0.7071888924
 C         -6.6523708349        1.4060243509        0.5136285657
 C         -5.6044616346        2.4405813890        0.9240133780
 H         -6.0078894939        2.9922274396        1.7758577366
 H         -4.7077391896        1.9225323765        1.2719170498
 C         -5.2176414888        3.4268382496       -0.1868094889
 H         -5.9773085778        3.4207946086       -0.9692134801
 H         -5.1918564282        4.4346655004        0.2327709068
 C         -3.8452319032        3.1708312032       -0.8128165609
 H         -3.5809386651        4.0398019662       -1.4214844633
 H         -3.0914719795        3.0827598264       -0.0258600801
 C         -3.7428580800        1.9340234033       -1.7145224043
 H         -2.7824206748        1.9826936206       -2.2366130452
 H         -4.5404972439        1.9541029319       -2.4600728386
 H         -7.5950579951        1.9089711899        0.2909989699
 H         -6.8169269889        0.7323252015        1.3575930655
 H         -6.2953446822        1.1730871487       -1.6095566730
 H         -6.9433143860       -0.2700570661       -0.8064581326
 O         -4.8578900084       -1.1678638019        0.1134148266
 C         -3.6681938724       -1.8072858740        0.4198015156
 O         -3.8037239553       -2.8721746917        1.0554533482
 O         -1.3701858049        0.5436892993       -1.1066115655
 C         -1.1793985562       -1.9414130274        0.3356524888
 C         -0.2488711809       -1.0234001026        1.0903189364
 C         -0.7397074596       -0.3299047111        2.1940400808
 C          0.0741216285        0.5266668613        2.9084957828
 C          1.3940148993        0.7117893920        2.5359811504
 C          1.8996277572        0.0120117910        1.4473687797
 C          1.0812706316       -0.8577411398        0.7386771927
 H          1.4954697352       -1.3832358839       -0.1042964691
 N          3.2547104894        0.1463450742        1.0882105461
 S          3.6945166698        0.2729215760       -0.5381565166
 O          3.0699072544        1.4296839480       -1.1415504405
 O          3.4791079120       -0.9922982024       -1.1910987660
 C          5.4457249098        0.5546902209       -0.3464169561
 C          6.2610295050       -0.5287839641       -0.0793948811
 C          7.6187688486       -0.3177733862        0.0995168753
 C          8.1363653981        0.9660140976        0.0093252149
 C          7.3064138382        2.0432275605       -0.2618061216
 C          5.9470050050        1.8389194716       -0.4403437799
 H          5.2653406714        2.6445433419       -0.6617541590
 H          7.7119559800        3.0394738567       -0.3351358815
 H          9.1937095143        1.1274829678        0.1481252335
 H          8.2676851080       -1.1531943756        0.3074975014
 H          5.8154384773       -1.5083507232       -0.0273459180
 H          3.7068914907        0.8867584635        1.6096889645
 H          2.0274852733        1.3908528963        3.0868499433
 H         -0.3231285118        1.0628789924        3.7575128505
 H         -1.7750947109       -0.4671934722        2.4772080091
 H         -1.4550631436       -2.7732013584        1.0011686748
 C         -0.5689125886       -2.5132311017       -0.9268542355
 C          0.2748394825       -3.7496126572       -0.8643930377
 C         -1.0951751333       -3.8068110512       -1.4687398204
 H         -1.1853701923       -3.9187595111       -2.5388168757
 H         -1.8824844528       -4.2917798711       -0.9097540599
 H          1.1321471311       -3.8176900283       -1.5173522370
 H          0.4201106643       -4.2053083427        0.1034656667
 H         -0.2947106645       -1.7455104723       -1.6429000289
