  62
        -98.93454875
 C         -2.4638334260       -1.2727161123        0.2903939063
 C         -2.5854189522       -0.1186732539       -0.5156640011
 C         -3.8181434034        0.6757140593       -0.3460075401
 C         -4.7303885983        0.2821669510        0.5609250748
 C         -6.0536364768        0.9171100498        0.9072021137
 C         -6.0665583560        2.4464340713        1.0556225194
 C         -6.8113716491        3.1606713513       -0.0735212276
 H         -7.7006274963        2.5790700996       -0.3253619354
 H         -7.1509380421        4.1325215965        0.2916134004
 C         -5.9915642069        3.4037316016       -1.3394853780
 H         -6.6713334656        3.7857970106       -2.1047701638
 H         -5.2502279496        4.1820449039       -1.1459990302
 C         -5.2672236454        2.1761398619       -1.8957981276
 H         -5.9047874768        1.2950705513       -1.8324928891
 H         -5.0751839885        2.3543871485       -2.9560188798
 C         -3.9173988940        1.8981398711       -1.2172441396
 H         -3.1449916393        1.7548411327       -1.9793483110
 H         -3.6049038333        2.7705789597       -0.6361792996
 H         -5.0467137119        2.8200267730        1.1329905947
 H         -6.5697737748        2.6851805864        1.9939711063
 H         -6.7904725352        0.6109539447        0.1603898824
 H         -6.3535174604        0.4503615011        1.8482358075
 O         -4.5662545231       -0.8403224853        1.3198178382
 C         -3.4454443139       -1.6407424953        1.2082902390
 O         -3.4360971176       -2.6292819001        1.9698374423
 H          1.0958674253       -1.9121265371       -1.2936263308
 C          1.1092042441       -1.3349441177       -0.3822349218
 C          0.0095166920       -1.3449690406        0.4598892104
 C          0.0660120781       -0.5972254156        1.6335567751
 C          1.1840296509        0.1528038971        1.9411330537
 C          2.2731526794        0.1755450739        1.0867079597
 C          2.2341515949       -0.5763825808       -0.0782367494
 N          3.3284806201       -0.5530300089       -0.9557601463
 S          4.8830785595       -0.6913515349       -0.3470518130
 O          5.6709446760       -1.2075768316       -1.4450788066
 O          4.9069305167       -1.4591022631        0.8761196264
 C          5.3721879052        0.9902814161       -0.0249665761
 C          5.8411990263        1.3436740907        1.2249771806
 C          6.2267927576        2.6560820574        1.4501415252
 C          6.1384583625        3.5865319748        0.4261933418
 C          5.6682798200        3.2148145424       -0.8246320580
 C          5.2822679598        1.9043993924       -1.0563319596
 H          4.9150853549        1.5763822642       -2.0144439445
 H          5.6007590758        3.9412143323       -1.6185039950
 H          6.4376816341        4.6074525356        0.6038285329
 H          6.5934464732        2.9468667198        2.4215258281
 H          5.8883218877        0.5878856898        1.9929984477
 H          3.2041155333       -1.1086230630       -1.7891006924
 H          3.1464207874        0.7627848932        1.3186874629
 H          1.2087160352        0.7299003733        2.8532241552
 H         -0.7856743429       -0.6120402686        2.3007395229
 C         -1.2330560931       -2.1534346005        0.1749229909
 H         -1.3292349183       -2.9135773017        0.9641722007
 C         -1.2185357823       -2.8497928151       -1.1699198947
 C         -0.5246107323       -4.1684296132       -1.3297225479
 C         -2.0216827292       -4.1022840099       -1.3430207013
 H         -2.5373897418       -4.2596480764       -2.2784035583
 H         -2.5600529524       -4.4685901343       -0.4809193714
 H         -0.0145092569       -4.3762750384       -2.2586037079
 H         -0.0429638851       -4.5889362987       -0.4596330720
 H         -1.1956308274       -2.1527237086       -1.9999098418
 O         -1.7089483776        0.2356635371       -1.3472091212
