  62
        -98.94346207
 C         -1.9802911545       -0.8060282965        0.5214356966
 C         -2.1060235672       -0.1208560202       -0.7108867483
 C         -2.3307670485        1.3277813023       -0.6174174495
 C         -2.3543050480        1.9145279642        0.5930173301
 C         -2.6051597311        3.3746676247        0.8337913292
 C         -4.1002891587        3.6594099970        1.0348023705
 C         -4.9958226793        3.0378666831       -0.0368342601
 H         -4.9419508396        1.9497825646        0.0431927306
 H         -6.0238570299        3.3276251537        0.1906670249
 C         -4.6509950300        3.4573888161       -1.4725255824
 H         -5.5764596767        3.7020939554       -1.9978298408
 H         -4.0378153087        4.3590006081       -1.4573573135
 C         -3.9436441531        2.3787339992       -2.2949043352
 H         -3.9421103654        2.6949325270       -3.3413195466
 H         -4.5069958987        1.4442561918       -2.2353698676
 C         -2.4889398350        2.0879758575       -1.9041658812
 H         -1.9203689798        3.0198074437       -1.8708160126
 H         -2.0550129740        1.4499079155       -2.6797969637
 H         -4.2456212636        4.7410428436        1.0519815272
 H         -4.4000517968        3.2599931560        2.0064461584
 H         -2.0606060996        3.6706271135        1.7322518037
 H         -2.2240307457        3.9447073377       -0.0113674094
 O         -2.1976001586        1.2278463716        1.7546563550
 C         -2.0021009228       -0.1431292727        1.7466864078
 O         -1.8675434144       -0.6513169046        2.8807995836
 O         -2.0332501790       -0.6896290249       -1.8321063041
 C         -1.7112990689       -2.2984829134        0.5290790339
 C         -0.4287855449       -2.6047795997       -0.2095106469
 C         -0.2445344461       -3.7647581439       -0.9516109536
 C          0.9617426459       -4.0033221710       -1.5876015368
 C          2.0015970543       -3.0966240892       -1.5036050858
 C          1.8245242905       -1.9282670755       -0.7687322381
 C          0.6242559730       -1.7042401124       -0.1161284327
 H          0.5043198256       -0.8026243716        0.4673487314
 N          2.8399420384       -0.9596747553       -0.7154937161
 S          2.8578585944        0.2092741534        0.4927570281
 O          2.8328644321       -0.4122445936        1.7996144512
 O          1.8302575494        1.1844480046        0.2229298857
 C          4.4612155716        0.9279819868        0.1898164234
 C          5.5411085028        0.5361994584        0.9580727154
 C          6.7868558111        1.0831344441        0.6922988679
 C          6.9312256415        2.0050281268       -0.3334731225
 C          5.8378702919        2.3893058084       -1.0957433090
 C          4.5896263683        1.8471254979       -0.8344931895
 H          3.7091097208        2.1205132582       -1.3925534891
 H          5.9528869931        3.1085079453       -1.8905221909
 H          7.9013193283        2.4293984598       -0.5383387056
 H          7.6376188677        0.7890018208        1.2854264189
 H          5.3779853941       -0.1766548735        1.7503155340
 H          3.7607479901       -1.3235929139       -0.9156571310
 H          2.9372732708       -3.2805104107       -2.0085356981
 H          1.0929503330       -4.9096569549       -2.1590227757
 H         -1.0461499771       -4.4806519530       -1.0327875336
 H         -1.5660996826       -2.5758988778        1.5848362874
 C         -2.9064105061       -3.0548454358       -0.0163433744
 C         -3.2605771956       -4.4084783139        0.5198473787
 C         -4.1128380093       -3.2230374163        0.8561733649
 H         -5.0909281699       -3.1426652332        0.4062717360
 H         -4.0575614257       -2.8184665860        1.8568449264
 H         -3.6584082852       -5.1451259956       -0.1618214591
 H         -2.6360171559       -4.8169985326        1.3000936600
 H         -3.0727301616       -2.8584594311       -1.0692571114
