  62
        -98.94042278
 C         -0.5311322217       -1.4574434429        0.0480953528
 C         -1.3594726120       -0.9575833297        1.0791470660
 C         -2.4124661864       -0.0186235890        0.6649963912
 C         -2.4969607816        0.3399193527       -0.6294081568
 C         -3.5952689770        1.1675955075       -1.2346583560
 C         -4.8645521544        0.3062478997       -1.3990285111
 C         -6.0458017012        0.7546696358       -0.5384383203
 H         -6.4861295281        1.6516495962       -0.9787680439
 H         -6.7986557464       -0.0353799751       -0.5789859875
 C         -5.7254725085        1.0618244523        0.9275824545
 H         -5.2819474604        2.0553272962        1.0073538352
 H         -6.6784928966        1.1036951342        1.4592873997
 C         -4.8101913569        0.0573049359        1.6394260801
 H         -4.8669971961       -0.9214250194        1.1624223567
 H         -5.1726238100       -0.0670808163        2.6620403133
 C         -3.3351917466        0.4911847142        1.7371791875
 H         -3.2805096802        1.5821454167        1.7840154522
 H         -2.9191687482        0.1028278730        2.6717751839
 H         -5.1799646397        0.3174134589       -2.4433560094
 H         -4.6107815304       -0.7284462716       -1.1593344146
 H         -3.8019543231        2.0315900511       -0.6081399811
 H         -3.2439778871        1.5096888835       -2.2073349033
 O         -1.6280068478       -0.0988222414       -1.5759101716
 C         -0.6359261064       -1.0178116856       -1.2711185501
 O          0.0690077115       -1.3552925584       -2.2400299053
 H          1.5769819362       -0.0862488740        0.6078808922
 C          2.2724264481       -0.7736937110        0.1484275798
 C          1.8854526369       -2.0915334407       -0.0586202239
 C          2.7972019997       -2.9699804327       -0.6304713283
 C          4.0582359404       -2.5308526450       -0.9940663560
 C          4.4370182054       -1.2172579760       -0.7928392197
 C          3.5328336621       -0.3303245101       -0.2169674247
 N          3.8770966779        1.0116960414       -0.0371902975
 S          3.0270480118        2.0644707096        0.9208530607
 O          3.8566148783        3.2510370213        0.9546794680
 O          2.7043200075        1.4942169754        2.2083007836
 C          1.5458401990        2.4339192693        0.0066705740
 C          0.3642415982        2.6232021003        0.6940534566
 C         -0.7660454776        3.0067677345       -0.0087260391
 C         -0.6980096612        3.1868931415       -1.3808918007
 C          0.4918212043        2.9755821601       -2.0591337667
 C          1.6284249937        2.6025104570       -1.3607889145
 H          2.5701711020        2.4379649921       -1.8576039721
 H          0.5379096273        3.1026683115       -3.1287341018
 H         -1.5776872308        3.4930335657       -1.9241712057
 H         -1.6916939251        3.1668909558        0.5198840028
 H          0.3489933619        2.4594602137        1.7605656411
 H          4.8358606089        1.2703672721       -0.2062262415
 H          5.4187856773       -0.8743494178       -1.0805676796
 H          4.7563838372       -3.2224364809       -1.4406745284
 H          2.5206884740       -3.9984139136       -0.7944279254
 C          0.5058022686       -2.5127451165        0.3808115818
 H          0.5084797237       -2.5872723926        1.4793935944
 C          0.0753289535       -3.8475003272       -0.1958804081
 C          0.4138358254       -5.1276229677        0.5063383555
 C         -0.9974449329       -4.6245679432        0.5045048612
 H         -1.7322255241       -5.1445074294       -0.0918216239
 H         -1.3938986836       -4.2053843410        1.4179483844
 H          0.6461798295       -5.9975266189       -0.0894842224
 H          0.9727740773       -5.0602764932        1.4275363212
 H          0.0632583712       -3.8438564960       -1.2804472716
 O         -1.2351676915       -1.2944713165        2.2891369833
