  62
        -98.94012127
 C          2.0246539421        0.7493822304       -0.2281857618
 C          3.0786333276        0.6584461670        0.7184022440
 C          3.7215577745       -0.6527356931        0.8616473820
 C          3.2649714271       -1.6868369665        0.1326476624
 C          3.8558000344       -3.0666616629        0.1381158102
 C          4.9363274491       -3.2122060065       -0.9428957377
 C          5.9677686226       -2.0838018387       -0.9416179075
 H          6.6936490295       -2.3066182956       -1.7266004145
 H          5.4727892350       -1.1497936752       -1.2173996345
 C          6.7002135038       -1.8943034941        0.3940704404
 H          7.7663488923       -1.7693352591        0.1936928375
 H          6.5880740811       -2.7887707965        1.0076966010
 C          6.2512733364       -0.6710241671        1.1953936296
 H          6.2737062617        0.2144339493        0.5553345992
 H          6.9710015783       -0.5103680239        2.0023567066
 C          4.8606431581       -0.7664617421        1.8358363786
 H          4.7830382650       -1.6904901760        2.4122344247
 H          4.7515841908        0.0780263197        2.5223927016
 H          5.4407501760       -4.1695223294       -0.7996098390
 H          4.4471604834       -3.2279225410       -1.9196513979
 H          4.2790842599       -3.2699510036        1.1199543587
 H          3.0562484722       -3.7828500207       -0.0589839979
 O          2.2338236226       -1.5737936714       -0.7415859073
 C          1.5921299853       -0.3595626591       -0.9568409105
 O          0.6920316981       -0.4227148616       -1.8163174698
 H         -1.0713531664        0.9296657399       -0.7964767339
 C         -1.0411874798        1.5179638997        0.1075310320
 C          0.1240404296        2.1784898596        0.4744080421
 C          0.1427231266        2.8955395878        1.6662043686
 C         -0.9782357064        2.9507889794        2.4740334141
 C         -2.1368978987        2.2923921801        2.1071092143
 C         -2.1673308401        1.5729987108        0.9164686080
 N         -3.3509294129        0.9325442704        0.5138975328
 S         -3.2614849036       -0.5282751409       -0.3293555932
 O         -2.3300752689       -1.4216574680        0.3231160519
 O         -3.0462088696       -0.2471739138       -1.7249593213
 C         -4.9346200992       -1.1059588634       -0.0979555787
 C         -5.9307134577       -0.5787008956       -0.8983391756
 C         -7.2384053317       -0.9932705729       -0.7026015235
 C         -7.5278116313       -1.9231935662        0.2850855083
 C         -6.5179781330       -2.4455571424        1.0789500077
 C         -5.2080043791       -2.0333386452        0.8893348331
 H         -4.3890311310       -2.4166382288        1.4768320001
 H         -6.7448741022       -3.1709645502        1.8435416956
 H         -8.5462070729       -2.2448909956        0.4352858399
 H         -8.0253758843       -0.5911960937       -1.3199732545
 H         -5.6552269896        0.1333452942       -1.6586154921
 H         -4.0359701807        0.8814468032        1.2561499577
 H         -3.0141361428        2.3325083229        2.7349302372
 H         -0.9481207274        3.5072954410        3.3984500333
 H          1.0545451816        3.3928129082        1.9633475655
 C          1.3679447061        2.1122612033       -0.3801182552
 H          2.0930559291        2.8231994459        0.0405741768
 C          1.0911817464        2.5107292292       -1.8146283259
 C          0.9255811948        3.9642785229       -2.1394657840
 C          2.1517780964        3.2302027343       -2.5905170991
 H          2.2638786489        3.0022993954       -3.6398705137
 H          3.0846622441        3.4380365793       -2.0867203923
 H          1.0282233493        4.6712365983       -1.3300594616
 H          0.1915610502        4.2439797501       -2.8793398641
 H          0.4787048960        1.8004460877       -2.3545666677
 O          3.4714324522        1.6387077911        1.4066928398
