  62
        -98.93847978
 C          1.0462494483        1.4620594650        0.0524613240
 C          1.5335083161        0.4634258761        0.9309108319
 C          2.5254099139       -0.4643663436        0.3733652791
 C          2.8530222421       -0.3784875850       -0.9281953314
 C          3.8353486854       -1.2445345142       -1.6718229165
 C          5.3055697978       -1.1310987321       -1.2242186562
 C          5.7336007330       -2.1798078385       -0.1898197807
 H          5.0764087354       -3.0461727539       -0.2734445795
 H          6.7391461819       -2.5260323263       -0.4373500459
 C          5.7721593989       -1.7064626705        1.2665553958
 H          5.8431263334       -2.5911457347        1.9030769492
 H          6.6771578935       -1.1155464045        1.4254172443
 C          4.5860239796       -0.8586487768        1.7276650465
 H          4.6813964736        0.1540311167        1.3284805012
 H          4.6365259638       -0.7663774545        2.8144324877
 C          3.2045119255       -1.4087340819        1.3216711664
 H          2.5608283420       -1.4848497359        2.1999622529
 H          3.3022071829       -2.3985818223        0.8796675017
 H          5.4952942234       -0.1257824982       -0.8490911573
 H          5.9192403554       -1.2632822362       -2.1167273979
 H          3.5208708888       -2.2882225401       -1.6038574611
 H          3.7568980120       -0.9418000033       -2.7179099885
 O          2.2727514014        0.5226535209       -1.7656659758
 C          1.3723391262        1.4717207071       -1.3040366101
 O          0.9488838249        2.2371553329       -2.1894880465
 O          1.1628262343        0.3595130248        2.1311384935
 C          0.0974723229        2.5073550675        0.6178031073
 C         -1.3035278106        2.1725359725        0.1730327202
 C         -1.9366602216        2.7920187026       -0.8964986351
 C         -3.2018868253        2.3888052374       -1.2897050972
 C         -3.8622383957        1.3709969490       -0.6246853690
 C         -3.2352106969        0.7464096230        0.4455528046
 C         -1.9669471808        1.1460903295        0.8356860364
 H         -1.4707773711        0.6479779732        1.6589218297
 N         -3.8985900129       -0.3096625605        1.1154814101
 S         -4.0084933212       -1.7354085428        0.2447584358
 O         -4.7528648832       -1.4837554066       -0.9615550060
 O         -4.5638977894       -2.7125422647        1.1521792687
 C         -2.3214928701       -2.1611551357       -0.1491385322
 C         -1.6973300895       -1.5196987974       -1.2006693446
 C         -0.3696466330       -1.8115859972       -1.4671473850
 C          0.3051558773       -2.7330744695       -0.6820455414
 C         -0.3324132818       -3.3619731670        0.3753965139
 C         -1.6579322689       -3.0696867441        0.6505854692
 H         -2.1946541711       -3.5375383246        1.4603698232
 H          0.2005111072       -4.0729494338        0.9858515594
 H          1.3361380185       -2.9605689361       -0.8986213464
 H          0.1342945676       -1.3110355928       -2.2795526970
 H         -2.2518248647       -0.8124059584       -1.7964210801
 H         -3.4918447666       -0.5148809077        2.0183589124
 H         -4.8400151032        1.0356940018       -0.9297497491
 H         -3.6805514551        2.8750200265       -2.1263135586
 H         -1.4291828600        3.5752159787       -1.4348600856
 H          0.1405647187        2.3738761232        1.7076061835
 C          0.5270287029        3.9200319179        0.2860533266
 C         -0.0653368362        5.0617060288        1.0550245407
 C          1.3672778929        4.6777631191        1.2681554947
 H          2.1391238742        5.3307640789        0.8892242901
 H          1.6311411894        4.1813291182        2.1906862962
 H         -0.2794101581        5.9807096214        0.5314689023
 H         -0.7755980207        4.8231924600        1.8323098453
 H          0.7390864901        4.0719483493       -0.7645451010
