  62
        -98.93314357
 C         -2.7420104087        0.4530305922        0.2111779682
 C         -2.2418722408        1.2782530545       -0.8256049409
 C         -1.5129687553        2.4816577439       -0.3866087049
 C         -1.3693865432        2.7465890465        0.9224384940
 C         -0.6333741175        3.9120004611        1.5262018406
 C          0.8914502959        3.9007461269        1.2982115065
 C          1.3523059841        4.7566486776        0.1115852868
 H          0.6014210872        5.5248666525       -0.0783975786
 H          2.2711727978        5.2768529846        0.3895609853
 C          1.6434713903        3.9984349382       -1.1877310371
 H          2.6263514266        3.5266446677       -1.1148212623
 H          1.6862806243        4.7285220443       -1.9994030128
 C          0.6469362731        2.9008343648       -1.5625444404
 H          0.8143699280        2.0205020951       -0.9364982644
 H          0.8586373598        2.5790788571       -2.5849285183
 C         -0.8370806397        3.3022828924       -1.4467989127
 H         -0.9341752129        4.3656546201       -1.2314429800
 H         -1.3517894255        3.0881440485       -2.3859055042
 H          1.2253805082        2.8686716356        1.1813008658
 H          1.3551815190        4.2929698635        2.2048611736
 H         -0.8385385828        3.8661680287        2.5975025509
 H         -1.0572422627        4.8420105855        1.1411689502
 O         -1.9194220707        1.9609130654        1.8877273229
 C         -2.5656765681        0.7854903345        1.5576664621
 O         -2.9636116603        0.1279014717        2.5422122065
 O         -2.3851512545        1.0552660027       -2.0554750338
 C         -3.3606386786       -0.9227966657        0.0022919591
 C         -2.3238481211       -1.9500393634        0.3897051668
 C         -2.6389413697       -3.0386134985        1.1926840825
 C         -1.6508047332       -3.9174297922        1.6014160703
 C         -0.3324744642       -3.7145143751        1.2373070129
 C         -0.0088029889       -2.6332341568        0.4237795089
 C         -1.0070471449       -1.7776657143       -0.0135536911
 H         -0.7434992096       -0.9402425534       -0.6431868574
 N          1.3183062644       -2.3982426493        0.0298539947
 S          1.7929146315       -0.8068566608       -0.2833507627
 O          1.2843153606        0.0873606493        0.7328330589
 O          1.4595283227       -0.4995448167       -1.6502456863
 C          3.5616073728       -0.9707580428       -0.1294811334
 C          4.1871960444       -0.5586782336        1.0314685413
 C          5.5593872051       -0.7191336256        1.1470272586
 C          6.2774851970       -1.2895815902        0.1069318164
 C          5.6355735765       -1.6977719172       -1.0531459252
 C          4.2646612220       -1.5378320368       -1.1760104287
 H          3.7229918671       -1.8286021052       -2.0608929404
 H          6.1974486633       -2.1380693867       -1.8609161100
 H          7.3447150078       -1.4141263769        0.1999089081
 H          6.0608404952       -0.3991179973        2.0460831312
 H          3.5877584568       -0.1155569660        1.8107927008
 H          1.9941831697       -2.8968386447        0.5918372328
 H          0.4430142670       -4.3807883469        1.5831033155
 H         -1.9061959501       -4.7555829793        2.2318193931
 H         -3.6582340839       -3.1750410133        1.5225647928
 H         -4.1840380951       -1.0017168994        0.7322313615
 C         -3.9519637694       -1.1626994729       -1.3757147090
 C         -3.2414547892       -1.9341781833       -2.4425038264
 C         -4.4311712387       -2.5324955937       -1.7570953395
 H         -5.3551948739       -2.6185555673       -2.3081335790
 H         -4.2517904798       -3.3371020964       -1.0602126363
 H         -3.3401037162       -1.5852746226       -3.4589278633
 H         -2.2633621277       -2.3311662050       -2.2165969514
 H         -4.5525612584       -0.3245412629       -1.7103886401
