  62
        -98.94372494
 C          1.7471604887       -0.4638681293       -0.5280724161
 C          2.9481454903       -0.4150318153       -1.2747284033
 C          4.1804349986       -0.6628625144       -0.5182252845
 C          4.1120502496       -0.9351754082        0.7978602270
 C          5.2786547266       -1.2311534669        1.7011096352
 C          5.9773330144        0.0208566889        2.2489824514
 C          6.8160498417        0.7956376093        1.2317464082
 H          7.4168631358        1.5143727315        1.7926048302
 H          7.5059983707        0.1125497034        0.7353063962
 C          5.9941354028        1.5542652642        0.1803195547
 H          6.3874299202        2.5676359715        0.0717927406
 H          4.9611498034        1.6476357192        0.5238134951
 C          5.9981962244        0.9155919559       -1.2086908731
 H          7.0103246150        0.9365362827       -1.6188378329
 H          5.3580433209        1.5130842516       -1.8630916604
 C          5.4878402672       -0.5311410599       -1.2395111070
 H          5.3225793283       -0.8141455141       -2.2820073954
 H          6.2310114565       -1.2015570441       -0.8085542916
 H          6.6353286580       -0.3014828241        3.0592500126
 H          5.2215853816        0.6829137214        2.6779144759
 H          6.0030848730       -1.8520127404        1.1733652983
 H          4.8814554668       -1.7998288192        2.5445500807
 O          2.9346245143       -0.9927168670        1.4749333244
 C          1.7273538607       -0.7375343897        0.8396886726
 O          0.7329117446       -0.7915716399        1.5867114035
 O          2.9881682292       -0.1731248660       -2.5113235368
 C          0.4307371048       -0.1938299434       -1.2330659872
 C         -0.2571471587        0.9943509968       -0.6081291182
 C          0.4718623394        2.1629066795       -0.3989860320
 C         -0.1161110845        3.2671804242        0.1849738921
 C         -1.4468434233        3.2349586070        0.5646382861
 C         -2.1865327730        2.0788026620        0.3516221467
 C         -1.5909729179        0.9696387897       -0.2349413143
 H         -2.1821287634        0.0848639888       -0.3971624475
 N         -3.5260065839        2.0055412947        0.7528420285
 S         -4.6425792409        1.1074437334       -0.1013633835
 O         -4.4204810336        1.1915501956       -1.5261651632
 O         -5.9248946654        1.5913808474        0.3649004516
 C         -4.4191756211       -0.5683998751        0.4567478498
 C         -4.0988144320       -0.8060850774        1.7783211499
 C         -3.9575818305       -2.1164119699        2.2062386837
 C         -4.1453969599       -3.1609406316        1.3140373800
 C         -4.4741808053       -2.9058841267       -0.0082397025
 C         -4.6137307671       -1.5975018850       -0.4433911805
 H         -4.8578789509       -1.3521772696       -1.4650291002
 H         -4.6194045851       -3.7199711351       -0.7006786361
 H         -4.0324279022       -4.1795290251        1.6505570455
 H         -3.6964455301       -2.3181627482        3.2326393954
 H         -3.9512896804        0.0268027298        2.4452859285
 H         -3.9172809170        2.8563991756        1.1280036067
 H         -1.9069943423        4.0957654955        1.0255040184
 H          0.4637849978        4.1639066875        0.3447652838
 H          1.5114420417        2.1900335605       -0.6967547279
 H          0.7003537988        0.0722229048       -2.2663967994
 C         -0.4201463023       -1.4459438476       -1.2590980314
 C         -1.4154583056       -1.6615197592       -2.3583655064
 C         -0.1594275275       -2.4773189795       -2.3140793452
 H         -0.2306094989       -3.5200646589       -2.0442143039
 H          0.6170418289       -2.2642846499       -3.0342808867
 H         -2.3497137282       -2.1448357042       -2.1163155974
 H         -1.5021869828       -0.8942583755       -3.1130754417
 H         -0.6717893255       -1.7988205788       -0.2649058797
