  62
        -98.93613529
 C         -2.4160127389       -0.5989563696        0.2163007050
 C         -2.7231786700        0.7821007350        0.1072257055
 C         -4.0499088177        1.1205743416       -0.4218515695
 C         -4.8812412141        0.1272844297       -0.7851413035
 C         -6.2812492881        0.3208043489       -1.2900291203
 C         -7.2955349895        0.3009730785       -0.1378659585
 C         -6.9172588205        1.2067856099        1.0340000004
 H         -7.7175726653        1.1336688697        1.7735556786
 H         -6.0094959472        0.8214018786        1.5040937614
 C         -6.7038833728        2.6790346733        0.6552925985
 H         -7.2108320284        3.3071115493        1.3908169553
 H         -7.1600303588        2.8823398164       -0.3141610424
 C         -5.2392791036        3.1201398392        0.6271149660
 H         -5.2131472253        4.2114191895        0.5659123097
 H         -4.7511432242        2.8340688014        1.5623666565
 C         -4.4018917602        2.5769967193       -0.5376501731
 H         -4.9126749977        2.7757675755       -1.4820849239
 H         -3.4491608569        3.1147330253       -0.5416647502
 H         -7.3768661973       -0.7229685284        0.2339043792
 H         -8.2694791455        0.5988144487       -0.5303070589
 H         -6.3402235940        1.2672781040       -1.8239245999
 H         -6.5130448106       -0.4916824543       -1.9805400144
 O         -4.5482692102       -1.1828820240       -0.6876229924
 C         -3.3140301341       -1.5878585626       -0.1883522256
 O         -3.1688800748       -2.8228052441       -0.1694173103
 H          1.3771546180        0.2422178237        0.6794615601
 C          1.1896342624       -0.3701939800       -0.1900849881
 C         -0.0174908189       -1.0396020204       -0.3203365684
 C         -0.2437593055       -1.7985113511       -1.4646625113
 C          0.7268514857       -1.8898658593       -2.4454378482
 C          1.9403952108       -1.2405836468       -2.3005359027
 C          2.1709912767       -0.4701042020       -1.1668239502
 N          3.3786864468        0.2247707344       -1.0022137546
 S          3.9970120101        0.3904768055        0.5605937602
 O          3.8894704583       -0.8659928566        1.2670750420
 O          3.3788233872        1.5305750576        1.1890429401
 C          5.7022821304        0.7594907788        0.1956788227
 C          6.6477571875       -0.2463585772        0.2602170566
 C          7.9648265859        0.0515920658       -0.0531288597
 C          8.3110092572        1.3414640165       -0.4265530076
 C          7.3505838104        2.3406576391       -0.4861644047
 C          6.0324579906        2.0503345136       -0.1726049710
 H          5.2537756350        2.7949788145       -0.1946708547
 H          7.6238753120        3.3430093348       -0.7740245894
 H          9.3364289908        1.5706795947       -0.6698791386
 H          8.7144109902       -0.7216578165       -0.0040492486
 H          6.3337716122       -1.2323052679        0.5631512752
 H          4.0896315133       -0.0520299773       -1.6652189308
 H          2.6994123642       -1.3218029897       -3.0636484346
 H          0.5405002057       -2.4834998707       -3.3278500897
 H         -1.1827567159       -2.3212151182       -1.5701845211
 C         -1.0473785439       -0.9408660736        0.7757151857
 H         -0.7721046015       -0.0725464261        1.3972687758
 C         -1.0437460061       -2.1603567883        1.6868665686
 C         -0.4288165792       -3.4726468111        1.3153788969
 C          0.2329731844       -2.6033221459        2.3396643814
 H          0.2039337226       -2.9076536360        3.3752239905
 H          1.1448597574       -2.0954222070        2.0574491561
 H         -0.9346869502       -4.3692502725        1.6390864059
 H          0.0361039526       -3.5626399405        0.3465617721
 H         -1.9411400376       -2.2097364790        2.2958643963
 O         -1.9198040483        1.6934109241        0.4467052814
