  62
        -98.93885138
 C          1.2036295714       -1.2202416282        0.8805480031
 C          2.5631697649       -1.3837514757        0.4865319583
 C          3.4271431688       -0.2024935995        0.5500674866
 C          2.9204592956        0.9668980203        0.9768036933
 C          3.6679050164        2.2653332707        1.1130405242
 C          3.7651615564        3.0620770381       -0.1950468414
 C          4.7308829647        2.4890590350       -1.2332143355
 H          4.8727344075        3.2567955896       -1.9965363028
 H          5.7002419776        2.3094584336       -0.7668231723
 C          4.2385902418        1.2041156509       -1.9142628452
 H          4.3963399406        1.2809870830       -2.9927237189
 H          3.1613870331        1.0982465379       -1.7598797933
 C          4.9377414749       -0.0722469637       -1.4449104611
 H          5.9933640077       -0.0342247855       -1.7233966283
 H          4.4821524764       -0.9201442964       -1.9628572764
 C          4.8391736368       -0.3307124941        0.0639760679
 H          5.1667623154       -1.3549506162        0.2580798331
 H          5.4904080222        0.3546813692        0.6062363240
 H          4.0967261571        4.0714056596        0.0603205498
 H          2.7664003827        3.1399017778       -0.6325694545
 H          4.6694524616        2.0743268945        1.4998884548
 H          3.1203192735        2.8657486297        1.8427477772
 O          1.6283081254        1.0890435434        1.3645407682
 C          0.7314004713        0.0272590216        1.2991180995
 O         -0.4130356754        0.3590789116        1.6597363684
 O          3.0423363872       -2.4842507762        0.0981189449
 C          0.3546921544       -2.4737653730        0.7323093860
 C         -0.5452204482       -2.4269378740       -0.4827625261
 C         -0.5704642479       -3.4921039910       -1.3780054277
 C         -1.3779396004       -3.4509062325       -2.5002744442
 C         -2.1589548538       -2.3397233845       -2.7653850056
 C         -2.1423367150       -1.2726855814       -1.8754263787
 C         -1.3594073916       -1.3334367519       -0.7320116455
 H         -1.3623773025       -0.5007661885       -0.0512696289
 N         -2.9219781348       -0.1286117940       -2.0953104315
 S         -2.3567077841        1.3734317700       -1.6149486073
 O         -3.1112814101        2.3102915546       -2.4265315999
 O         -0.9195873509        1.4702541436       -1.7435938761
 C         -2.8792049074        1.5643394743        0.0749744610
 C         -3.8890989085        0.7746811522        0.5844088005
 C         -4.3007484452        0.9795017819        1.8914891906
 C         -3.7061238344        1.9685984066        2.6584215889
 C         -2.6975242184        2.7569252248        2.1286677683
 C         -2.2776734132        2.5537098979        0.8246798569
 H         -1.4806635950        3.1305154730        0.3818694318
 H         -2.2272042087        3.5200328826        2.7282858387
 H         -4.0239172990        2.1212034819        3.6780322674
 H         -5.0788868630        0.3608764942        2.3093679703
 H         -4.3240197389        0.0052393123       -0.0318810673
 H         -3.4015352317       -0.0882934646       -2.9824658856
 H         -2.7714244825       -2.2951468850       -3.6530392302
 H         -1.3865253464       -4.2840329094       -3.1866704605
 H          0.0619453978       -4.3490699681       -1.1967447248
 H          1.1100220459       -3.2500061172        0.5298118149
 C         -0.4323563207       -2.9890598121        1.9346748938
 C         -0.2042030423       -2.5179357181        3.3369954439
 C         -1.5092169075       -2.2375204658        2.6540821405
 H         -2.3825971868       -2.7896853439        2.9688842233
 H         -1.7038589372       -1.2195118793        2.3615672319
 H         -0.1689987879       -3.2500984451        4.1302672744
 H          0.4680511823       -1.6840673796        3.4784958934
 H         -0.6175687310       -4.0546930941        1.8262297954
