  62
        -98.94874227
 C         -2.0606055736       -1.0061170220       -0.1761745160
 C         -1.1993096709       -1.7560770571       -1.0102343766
 C         -0.2878907790       -2.6786649750       -0.3277005189
 C         -0.3071431283       -2.7600484765        1.0153514092
 C          0.5713526071       -3.6447864231        1.8578067403
 C          1.9566477791       -3.0439189137        2.1354607139
 C          2.9262845255       -3.0756603254        0.9529410063
 H          3.9201473451       -2.8577295405        1.3487565073
 H          2.9541561402       -4.0814137322        0.5316007994
 C          2.6037530214       -2.0562753182       -0.1483685947
 H          1.9376593177       -1.2905288243        0.2571141501
 H          3.5215815352       -1.5473608118       -0.4531059996
 C          1.9787471565       -2.6527407298       -1.4093466684
 H          1.7458144335       -1.8320862856       -2.0922005426
 H          2.7019751596       -3.3072725133       -1.9009123629
 C          0.6903573922       -3.4480785909       -1.1645083212
 H          0.2179833977       -3.6389307996       -2.1315440995
 H          0.9213158646       -4.4031427296       -0.6932353663
 H          1.8256598162       -2.0101652659        2.4671283312
 H          2.3991621682       -3.6079417401        2.9602449648
 H          0.0553827933       -3.7779945138        2.8111748609
 H          0.6818461333       -4.6198617241        1.3817639725
 O         -1.1661764321       -2.0390996776        1.7824544022
 C         -2.0265871241       -1.1133535838        1.2147005253
 O         -2.7152839475       -0.4777721376        2.0374578423
 O         -1.1875107100       -1.6506037795       -2.2677851615
 C         -2.9570443069        0.0441442707       -0.8062534929
 C         -2.5270875953        1.4137042156       -0.3364122180
 C         -3.4141893704        2.4370528306       -0.0315950002
 C         -2.9408372473        3.6561662700        0.4242686031
 C         -1.5871215606        3.8726275071        0.6010097221
 C         -0.6882594985        2.8584674888        0.2845725042
 C         -1.1651230511        1.6569448693       -0.2087301647
 H         -0.4712532370        0.8635525094       -0.4412429089
 N          0.6945872256        3.0496461988        0.4380514300
 S          1.7248193324        1.8586144236        1.0197635387
 O          1.0077051885        0.6749039966        1.4261554284
 O          2.5259710973        2.5019373404        2.0418142803
 C          2.7847973233        1.4883091597       -0.3669669895
 C          2.2409419572        1.2563718707       -1.6143248744
 C          3.0852901844        0.9343232372       -2.6655308923
 C          4.4529660115        0.8491783100       -2.4559714744
 C          4.9859027797        1.0898879679       -1.1991539302
 C          4.1461790173        1.4113132689       -0.1446216484
 H          4.5161673856        1.6086640140        0.8482029440
 H          6.0497124019        1.0258666001       -1.0362933051
 H          5.1042648992        0.5946257658       -3.2769781676
 H          2.6677938523        0.7481139090       -3.6423123618
 H          1.1744268736        1.3243972968       -1.7569925922
 H          0.9434321177        3.9400831671        0.8437893176
 H         -1.2240161141        4.8142277770        0.9845243521
 H         -3.6392446994        4.4435486367        0.6644877401
 H         -4.4748618797        2.2773913354       -0.1368594554
 H         -2.7703644176       -0.0237465513       -1.8892453000
 C         -4.4184138235       -0.2513965704       -0.5449505528
 C         -5.4627876295        0.1447231760       -1.5446307442
 C         -5.1025779814       -1.2989652793       -1.3697787718
 H         -5.8095765441       -1.9554522891       -0.8853760211
 H         -4.5193010679       -1.7792812771       -2.1418246134
 H         -6.4229766547        0.4788020756       -1.1813424529
 H         -5.1321134508        0.6421238960       -2.4438506270
 H         -4.6687458276       -0.2012006180        0.5087749305
