  62
        -98.93656988
 C         -2.4947748432       -1.2748599257        0.2086319331
 C         -2.6631168182       -0.3862515467       -0.8802298120
 C         -3.5457542331        0.7643800110       -0.6367473182
 C         -4.1359114569        0.9113288427        0.5630645201
 C         -5.1061147071        1.9913988548        0.9636537425
 C         -4.5487807706        3.4274292224        1.0087602719
 C         -4.7606955073        4.2292613820       -0.2814150815
 H         -5.6140186393        3.8120367089       -0.8173217835
 H         -5.0277148752        5.2544102046       -0.0168392801
 C         -3.5551500791        4.3105889190       -1.2228115131
 H         -3.9091741503        4.6800466826       -2.1875446599
 H         -2.8454546683        5.0427543824       -0.8308103385
 C         -2.7907614641        3.0049934561       -1.4436483343
 H         -2.1798549158        2.7832337739       -0.5649556473
 H         -2.0946011535        3.1523949961       -2.2715403624
 C         -3.6798671259        1.7800810379       -1.7336783893
 H         -4.7197977974        2.0789981205       -1.8557095958
 H         -3.3500714628        1.2905102810       -2.6520748822
 H         -5.0687116099        3.9420837033        1.8184197168
 H         -3.4915158478        3.3995160593        1.2718847931
 H         -5.9648272678        1.9575848624        0.2893946480
 H         -5.4540350960        1.7132983492        1.9606761069
 O         -3.9403930775        0.0336931222        1.5868079135
 C         -3.1074402464       -1.0636948413        1.4424428756
 O         -2.9932216956       -1.7627620084        2.4711781140
 H         -0.2175963121       -0.4677604348        1.1101326013
 C          0.3684440065       -0.9843936908        0.3584175379
 C         -0.1942415947       -2.0652033429       -0.3093506782
 C          0.5766593558       -2.7297891795       -1.2540091082
 C          1.8647841645       -2.3056052635       -1.5323084245
 C          2.4116427382       -1.2162491369       -0.8801541765
 C          1.6545657035       -0.5516693886        0.0759296640
 N          2.1974253894        0.5641845094        0.7392728968
 S          3.6905520440        0.3802679806        1.4877500799
 O          3.9055490313       -0.9847268240        1.9095678459
 O          3.7181799452        1.3862437262        2.5274468718
 C          4.8621074757        0.8218937140        0.2223995586
 C          5.8793041281       -0.0511940611       -0.1098131913
 C          6.7877855687        0.3207258940       -1.0887556313
 C          6.6635953520        1.5521295038       -1.7136085187
 C          5.6369092176        2.4180584883       -1.3670373092
 C          4.7263274531        2.0532112525       -0.3883909738
 H          3.9162814638        2.6968467837       -0.0880879637
 H          5.5429270142        3.3744169873       -1.8558320418
 H          7.3708945137        1.8392147908       -2.4755887825
 H          7.5865163714       -0.3507838635       -1.3598048980
 H          5.9319928791       -1.0004689987        0.3989189267
 H          1.5466744502        1.0155929463        1.3657416957
 H          3.4109889881       -0.8779608000       -1.1003342179
 H          2.4497392588       -2.8290011296       -2.2730179443
 H          0.1676629948       -3.5794250843       -1.7754769106
 C         -1.5964093661       -2.4883134880        0.0596174323
 H         -1.5546678586       -2.9603228317        1.0530392137
 C         -2.2078844249       -3.4693330256       -0.9197720193
 C         -1.9842129291       -4.9419402929       -0.7574542863
 C         -3.3262616471       -4.3496661755       -0.4520189616
 H         -4.1454644838       -4.5465716091       -1.1270336966
 H         -3.6255579399       -4.2610001821        0.5826393066
 H         -1.8852831398       -5.5498466888       -1.6441161842
 H         -1.3748469980       -5.2674413195        0.0722577777
 H         -2.2744479915       -3.0657424447       -1.9234193088
 O         -2.1112653572       -0.5450083149       -1.9991303063
