  62
        -98.94117908
 C          2.1285259342        0.7956983170       -0.3632574989
 C          3.0872065855        0.6238338443        0.6708201562
 C          3.6382521413       -0.7257416524        0.8393168990
 C          3.1941837333       -1.7170432219        0.0458461576
 C          3.6929436408       -3.1320268135        0.0756652118
 C          4.8630560167       -3.3312490760       -0.8979199032
 C          5.9610782785       -2.2758172753       -0.7668507797
 H          6.7475268849       -2.5348097419       -1.4788957790
 H          5.5599678190       -1.3057402017       -1.0689446080
 C          6.5633369871       -2.1579422051        0.6401837568
 H          6.3295575555       -3.0517618232        1.2196015254
 H          7.6503858961       -2.1033957649        0.5523705973
 C          6.1171932997       -0.9190627457        1.4190256395
 H          6.2623728980       -0.0276185737        0.8037943245
 H          6.7607824033       -0.8192876843        2.2970405627
 C          4.6661427397       -0.9293871852        1.9166957703
 H          4.4704081656       -1.8542518020        2.4634744665
 H          4.5447821631       -0.0903842223        2.6080988820
 H          5.2862226476       -4.3231107082       -0.7293651077
 H          4.4738142282       -3.2961072188       -1.9180187834
 H          4.0024897196       -3.3796607055        1.0892993213
 H          2.8721340145       -3.7905754648       -0.2138559131
 O          2.2601383114       -1.5240596662       -0.9170095287
 C          1.7040843732       -0.2748672304       -1.1503346181
 O          0.8667346354       -0.2768378298       -2.0761887419
 O          3.4684766652        1.5651869095        1.4168013893
 C          1.5583116832        2.1957414024       -0.5325127882
 C          0.2176744819        2.2936502289        0.1561774029
 C          0.0531256872        3.0741152894        1.2943422018
 C         -1.1664079295        3.1209180928        1.9477916624
 C         -2.2442417317        2.3871014046        1.4851547497
 C         -2.0857484867        1.5987645184        0.3534086821
 C         -0.8686161110        1.5661077542       -0.3092761991
 H         -0.7502050093        0.9367595319       -1.1790761595
 N         -3.1741410067        0.8209418192       -0.1179105659
 S         -3.5746160323       -0.4762168226        0.8939181376
 O         -3.9492940426        0.0495248234        2.1815830121
 O         -2.5118409308       -1.4610463610        0.8935485262
 C         -5.0101928592       -1.1201359256        0.0578758197
 C         -4.8501877602       -2.1231499427       -0.8785679647
 C         -5.9657020030       -2.5959304817       -1.5518304517
 C         -7.2145125109       -2.0573913918       -1.2808023697
 C         -7.3588170818       -1.0504754282       -0.3380316587
 C         -6.2475768394       -0.5738981077        0.3389250209
 H         -6.3115821964        0.2008918699        1.0846356056
 H         -8.3318893172       -0.6363740285       -0.1288727529
 H         -8.0804246793       -2.4273001627       -1.8067417238
 H         -5.8555803164       -3.3802012968       -2.2835196461
 H         -3.8615949490       -2.5190498270       -1.0509781231
 H         -2.9523069635        0.4287767071       -1.0259536707
 H         -3.1908664979        2.3938554051        1.9994046041
 H         -1.2775511979        3.7310772037        2.8314037873
 H          0.8967935435        3.6290462463        1.6786891123
 H          2.2555474571        2.8548747544        0.0019280687
 C          1.4789673260        2.6506440864       -1.9760103610
 C          1.3966741744        4.1176023467       -2.2696973590
 C          2.6494986304        3.3587978303       -2.5864539953
 H          2.8882559470        3.1602194056       -3.6204637906
 H          3.5161490596        3.5214274753       -1.9623206947
 H          0.7722319843        4.4439924420       -3.0868998060
 H          1.4140738412        4.7961941481       -1.4303998161
 H          0.9216089505        1.9763830660       -2.6126609533
