  62
        -98.93076640
 C          2.3781798328        1.2292122316        0.1100376633
 C          2.3161875267       -0.0631065317       -0.4622056291
 C          3.6084905307       -0.6746540769       -0.8349655201
 C          4.7473066505        0.0016625008       -0.6095173449
 C          6.1556052070       -0.4563940387       -0.8703698691
 C          6.7607620814       -1.0971810673        0.3900951760
 C          6.4786756972       -2.5902808322        0.5522517190
 H          7.0556662217       -3.1467353109       -0.1893035679
 H          6.8430335889       -2.8844501453        1.5391651365
 C          5.0074718465       -2.9962245552        0.4307113165
 H          4.3813357093       -2.2847817122        0.9724502310
 H          4.8868531812       -3.9665847661        0.9162690737
 C          4.5303980967       -3.1076946832       -1.0250457349
 H          5.3967954368       -3.0930644278       -1.6860990248
 H          4.0444069301       -4.0743066904       -1.1732178672
 C          3.5238479730       -2.0359643672       -1.4700333796
 H          3.5850602532       -1.9179825116       -2.5574512302
 H          2.5069124247       -2.3783317139       -1.2520446176
 H          6.3786724227       -0.5532071957        1.2577053445
 H          7.8434496962       -0.9580121657        0.3684009334
 H          6.1889583358       -1.1384570433       -1.7146207790
 H          6.7321838273        0.4377289067       -1.1164653989
 O          4.7630959664        1.2344555023       -0.0310589092
 C          3.5967267491        1.8686773858        0.3514900004
 O          3.7702123203        2.9774423051        0.8948918826
 H         -1.4906505411        1.3039443886       -0.0743757542
 C         -1.1228127588        0.8277753465        0.8179189921
 C          0.1753666990        1.0467760158        1.2507396304
 C          0.6168986108        0.3919432170        2.3977779487
 C         -0.2131013104       -0.4776480119        3.0771283021
 C         -1.5038317555       -0.7046003785        2.6338901487
 C         -1.9609239589       -0.0432755007        1.4997322633
 N         -3.2898413891       -0.2210734137        1.0770205043
 S         -3.7593254002       -0.0196504195       -0.5273924633
 O         -3.0688391971       -0.9468012372       -1.3952599760
 O         -3.6679280528        1.3769334202       -0.8721552295
 C         -5.4764733362       -0.4818440473       -0.3814637841
 C         -5.8922856694       -1.7264998460       -0.8138414181
 C         -7.2267367735       -2.0746524486       -0.6726253300
 C         -8.1172409888       -1.1781203210       -0.1018542097
 C         -7.6853300226        0.0683137626        0.3272488091
 C         -6.3532133980        0.4227973168        0.1873496128
 H         -5.9738061150        1.3823936981        0.4972931895
 H         -8.3812175129        0.7635860308        0.7683812374
 H         -9.1549597274       -1.4513671335        0.0066739818
 H         -7.5657784151       -3.0414880239       -1.0082193069
 H         -5.1654330339       -2.3877864804       -1.2578363686
 H         -3.7132904426       -1.0515791521        1.4680476077
 H         -2.1515273237       -1.3887493527        3.1608143930
 H          0.1479136332       -0.9883485879        3.9574557499
 H          1.6295770714        0.5635402529        2.7387447571
 C          1.1281420452        1.9769874093        0.5398132411
 H          1.4806302992        2.7199232449        1.2755166350
 C          0.4649353149        2.7613170435       -0.5828790551
 C          1.2498641480        3.2720850161       -1.7528571561
 C          0.2482465043        2.1748812081       -1.9442004584
 H         -0.6779608527        2.3977443164       -2.4549455597
 H          0.6039684182        1.1711152880       -2.1172055689
 H          1.0174269810        4.2549724366       -2.1342073781
 H          2.2995381204        3.0208795190       -1.8019642343
 H         -0.3174813121        3.4167468604       -0.2111362357
 O          1.2439019821       -0.6950893073       -0.6531280021
