  62
        -98.94488698
 C         -2.4499963563       -1.2011664115       -0.0965043046
 C         -3.2959958412       -0.5611536300        0.8478660367
 C         -4.0043686109        0.6380693408        0.3863782600
 C         -3.8268423501        1.0568654116       -0.8794955015
 C         -4.4326516939        2.2976930695       -1.4668140792
 C         -3.5001627310        3.5047201966       -1.2927307837
 C         -2.9699458045        3.6775085498        0.1308949230
 H         -2.3097581452        2.8396750085        0.3697635601
 H         -2.3524388966        4.5785189739        0.1390921958
 C         -4.0597380477        3.7928042816        1.2062082734
 H         -3.7965928586        4.6085592374        1.8826802257
 H         -5.0117770970        4.0511939288        0.7412586838
 C         -4.2383903347        2.5407550685        2.0669516511
 H         -3.2673351855        2.2232134757        2.4553942656
 H         -4.8644803309        2.8040029216        2.9235021631
 C         -4.8946124906        1.3412753493        1.3717435310
 H         -5.8248638022        1.6554698981        0.8945404325
 H         -5.1337414476        0.6012020884        2.1408270191
 H         -2.6442718990        3.3819480245       -1.9611304893
 H         -4.0402096968        4.4043836882       -1.5936473805
 H         -5.3890884054        2.4917612211       -0.9852746937
 H         -4.5986638556        2.1292263790       -2.5321806782
 O         -3.0266761300        0.4100059138       -1.7624962037
 C         -2.3043223093       -0.7165855138       -1.3962459925
 O         -1.6019282231       -1.1730100478       -2.3217257374
 O         -3.4528601302       -0.9803370843        2.0252746895
 C         -1.6741498023       -2.4145097873        0.3946393263
 C         -0.2600977261       -1.9895733301        0.7097114195
 C          0.1432964423       -1.7938219854        2.0260105698
 C          1.4151325352       -1.3302924450        2.3129973475
 C          2.3054069425       -1.0405283177        1.2942501162
 C          1.9070612733       -1.2217749346       -0.0233595274
 C          0.6415218748       -1.7104145782       -0.3079530246
 H          0.3339394894       -1.8240568356       -1.3366929252
 N          2.7957166359       -0.8840020154       -1.0681057844
 S          3.2004885872        0.7503159250       -1.1415818990
 O          2.1526510523        1.5800383927       -0.5895574839
 O          3.5631839575        1.0001473823       -2.5197659143
 C          4.6625025488        0.8607007057       -0.1303656657
 C          4.6741176780        1.6848149241        0.9777326776
 C          5.8242213104        1.7541809023        1.7488275518
 C          6.9357803381        1.0027024633        1.3994586734
 C          6.9085363957        0.1815365971        0.2818057601
 C          5.7625797837        0.1083618210       -0.4937860674
 H          5.6991152516       -0.5125322759       -1.3717119834
 H          7.7750743064       -0.4008285790        0.0132803686
 H          7.8286482238        1.0575138137        2.0020028030
 H          5.8468870245        2.3921812061        2.6177000052
 H          3.7831882453        2.2450188313        1.2128092926
 H          2.4511732461       -1.1755310385       -1.9732751466
 H          3.2936721995       -0.6674637125        1.5087367539
 H          1.7138817092       -1.1853929596        3.3399610019
 H         -0.5594520577       -1.9868404981        2.8237443351
 H         -2.1575626131       -2.6992958780        1.3386297935
 C         -1.7323628393       -3.5971117199       -0.5496607010
 C         -1.4031397329       -4.9607362016       -0.0225660899
 C         -2.8175270749       -4.6156257015       -0.3772871155
 H         -3.2528247974       -5.0570727815       -1.2611977446
 H         -3.5231660191       -4.4628012904        0.4261888504
 H         -0.8644333383       -5.6431660581       -0.6617406803
 H         -1.1492022888       -5.0427168598        1.0233281679
 H         -1.4349589714       -3.3616748991       -1.5630457256
