  62
        -98.94143503
 C          1.6050213697        1.1870699516        0.1560365900
 C          1.6708420094       -0.1529218486        0.6169475178
 C          2.7648352484       -0.9725904761        0.0874289074
 C          3.6214876711       -0.4398757152       -0.8028012370
 C          4.7725115634       -1.1508648303       -1.4613365990
 C          6.0550145308       -1.1782638760       -0.6188649805
 C          6.0197474509       -2.1170984069        0.5876339160
 H          5.7057202486       -3.1103154182        0.2652345618
 H          7.0435945355       -2.2033027336        0.9568978372
 C          5.1205026023       -1.6381127315        1.7358933227
 H          4.9041259449       -0.5746246027        1.6101990366
 H          5.6521356022       -1.7453740409        2.6841560738
 C          3.8011328754       -2.3986971506        1.8690089242
 H          3.2312799984       -1.9543894710        2.6892980130
 H          4.0033825445       -3.4407435950        2.1267052666
 C          2.9219282621       -2.3682444561        0.6117765228
 H          3.3414663448       -3.0187456299       -0.1556690555
 H          1.9298001128       -2.7372607045        0.8842489317
 H          6.2753287548       -0.1621324306       -0.2836027704
 H          6.8690888533       -1.4950676624       -1.2748239371
 H          4.9812584996       -0.6115935930       -2.3877467554
 H          4.4789693879       -2.1708706981       -1.7107149032
 O          3.5174577523        0.8429168128       -1.2339776153
 C          2.5188118254        1.6932853895       -0.7697272653
 O          2.5716097365        2.8349197505       -1.2603329340
 O          0.8472340610       -0.6408457763        1.4372535624
 C          0.4685596917        2.0325596319        0.7038201648
 C         -0.7401189513        1.8882271272       -0.1851029473
 C         -0.6755756795        2.1898242243       -1.5430424094
 C         -1.7879273374        2.0299210292       -2.3478034794
 C         -2.9740898580        1.5444440031       -1.8234868384
 C         -3.0447817813        1.2285289855       -0.4726754647
 C         -1.9332803583        1.4154395686        0.3392272534
 H         -2.0043348798        1.1624434694        1.3862327340
 N         -4.2309459768        0.7241791916        0.0900050977
 S         -4.1535418126       -0.6834577529        0.9992667790
 O         -5.5294087484       -1.1175128624        1.1070506299
 O         -3.4704129133       -0.4288613857        2.2399981610
 C         -3.2435991797       -1.8191430133       -0.0317718547
 C         -1.8670422744       -1.8842005479        0.0422022559
 C         -1.1934859634       -2.7151016961       -0.8405116578
 C         -1.8971228475       -3.4631759920       -1.7705996419
 C         -3.2811591340       -3.3908710288       -1.8264547600
 C         -3.9608727434       -2.5567173196       -0.9550828462
 H         -5.0358421208       -2.4739575901       -0.9593969727
 H         -3.8283558544       -3.9773608984       -2.5468064887
 H         -1.3633379045       -4.1065046566       -2.4522803080
 H         -0.1165900676       -2.7621042307       -0.7905975538
 H         -1.3271401166       -1.3044141474        0.7747485529
 H         -5.0003924501        0.6687005772       -0.5627533889
 H         -3.8386121844        1.4103242278       -2.4557251830
 H         -1.7286456895        2.2750746563       -3.3974183019
 H          0.2553357620        2.5505253721       -1.9544334104
 H          0.2163909703        1.5704588380        1.6721820330
 C          0.8540412092        3.4782093741        0.9818157256
 C          0.2606031014        4.6513436561        0.2665039294
 C         -0.1176162011        4.3768953856        1.6889139944
 H          0.2494251141        5.0331182561        2.4634997081
 H         -1.1061304613        3.9831044025        1.8757884073
 H          0.9124125003        5.4845719350        0.0525895840
 H         -0.4765924769        4.4689018627       -0.4989878975
 H          1.8966062301        3.5730448142        1.2672353828
