  62
        -98.94068604
 C         -0.8358376774       -1.2035131350        0.7566431737
 C         -1.6045175877       -1.1287203103       -0.4287075442
 C         -2.4608854680        0.0591189773       -0.5694227626
 C         -2.4155834279        1.0167110322        0.3735533882
 C         -3.2641057705        2.2567211780        0.3997372365
 C         -4.6934466733        1.9109615680        0.8642854119
 C         -5.7710231228        2.1204197144       -0.1995027985
 H         -6.6860179216        1.6482425016        0.1642430992
 H         -5.9685191851        3.1897020744       -0.2998293483
 C         -5.4472421983        1.5717092936       -1.5923147509
 H         -6.3837778230        1.5544765773       -2.1538513481
 H         -4.7837362056        2.2625398796       -2.1150704482
 C         -4.8229391395        0.1709331440       -1.6319973874
 H         -5.0829391903       -0.3920647128       -0.7353775357
 H         -5.2497740196       -0.3670576618       -2.4809028104
 C         -3.2938047424        0.1549394925       -1.8171696665
 H         -2.9809007626        1.0313697280       -2.3928493945
 H         -3.0200175299       -0.7290470946       -2.4014633756
 H         -4.7026548623        0.8697174695        1.1927479992
 H         -4.9496886292        2.5179876184        1.7338132480
 H         -3.2779057502        2.7090608232       -0.5898163860
 H         -2.7980862903        2.9564113417        1.0942382346
 O         -1.6260811837        0.9320730145        1.4760768590
 C         -0.8138185759       -0.1707423738        1.6916504044
 O         -0.1298853756       -0.1104247056        2.7332419110
 O         -1.5820486247       -2.0123723244       -1.3260745469
 C          0.1138104531       -2.3697237226        0.9739024632
 C          1.1402011387       -2.3559958043       -0.1336916729
 C          1.4893826362       -3.4660770769       -0.8899547814
 C          2.4020993763       -3.3438378817       -1.9244121948
 C          2.9690707139       -2.1211841187       -2.2334833676
 C          2.6376882318       -1.0070414650       -1.4695801078
 C          1.7530348678       -1.1410222735       -0.4141712878
 H          1.4981213369       -0.2752775913        0.1794634618
 N          3.1978634972        0.2513756355       -1.7321563472
 S          2.3156979117        1.6402441935       -1.4294710775
 O          0.9065255643        1.4663922811       -1.6976001049
 O          2.9841706907        2.6586545097       -2.2145966094
 C          2.5941901068        1.9745596018        0.2957968648
 C          1.5410835585        2.4015627211        1.0787923661
 C          1.7668664461        2.6771995310        2.4175566189
 C          3.0393079185        2.5260909216        2.9453691798
 C          4.0896613426        2.1048086244        2.1437559822
 C          3.8694102794        1.8267865455        0.8046509618
 H          4.6586784328        1.4928500796        0.1520921256
 H          5.0772410294        1.9876816285        2.5602145659
 H          3.2098079253        2.7347697487        3.9897283313
 H          0.9451131209        2.9905746512        3.0410376170
 H          0.5612475365        2.4879320685        0.6340854384
 H          3.7418831389        0.3166598939       -2.5798818422
 H          3.6572975535       -2.0242271188       -3.0591797903
 H          2.6607445455       -4.2115625926       -2.5122220431
 H          1.0370550081       -4.4217718222       -0.6820841202
 H          0.6311157024       -2.1676962153        1.9232565974
 C         -0.6422618014       -3.6749083671        1.0936208043
 C         -0.0625556166       -4.8093324009        1.8826316877
 C         -1.2366929520       -4.0475293456        2.4174872132
 H         -2.2032339101       -4.5283395443        2.4314586534
 H         -1.0753546850       -3.3680018141        3.2418149117
 H         -0.2247706321       -5.8173601073        1.5320734162
 H          0.8972787210       -4.6529780322        2.3510141425
 H         -1.2161013154       -3.9068712092        0.2040753053
