  62
        -98.94055272
 C          2.3438681331       -0.1507924089       -0.2794427870
 C          3.5080035914       -0.4873582453       -1.0105672906
 C          4.7301297037        0.2393792498       -0.6430260264
 C          4.6728503041        1.1735302095        0.3240482786
 C          5.8511877727        1.9497281131        0.8354622727
 C          6.5110245658        1.2376833032        2.0247427678
 C          6.7936369811       -0.2443452436        1.7782753791
 H          5.8446639025       -0.7760342541        1.6768568570
 H          7.2858998523       -0.6344187009        2.6718040062
 C          7.6670124389       -0.5282583228        0.5482020986
 H          8.4246419119       -1.2663915993        0.8195873515
 H          8.1918517450        0.3796143688        0.2489503491
 C          6.9060255881       -1.0924303684       -0.6529613688
 H          6.3035665704       -1.9476515691       -0.3363831035
 H          7.6377749056       -1.4583243741       -1.3781177701
 C          5.9906043550       -0.1039038452       -1.3862395013
 H          5.6685033315       -0.5779962634       -2.3180240888
 H          6.5498141653        0.7999776290       -1.6358960898
 H          5.8474857834        1.3202076184        2.8886680969
 H          7.4434266734        1.7533400306        2.2615520658
 H          5.5012218491        2.9311404899        1.1595989625
 H          6.5719036989        2.0787974135        0.0304003866
 O          3.5299594228        1.4873569989        0.9866307688
 C          2.3394554607        0.8304633956        0.7116751183
 O          1.3737570911        1.2077688127        1.4018985050
 O          3.5222923905       -1.3501188190       -1.9298851812
 C          1.0491936515       -0.8793108820       -0.5879103877
 C         -0.0253729389        0.0983959938       -0.9940384091
 C          0.2561247012        1.0310110075       -1.9900718654
 C         -0.7012410911        1.9374577620       -2.4004360561
 C         -1.9662356993        1.9245637212       -1.8389275476
 C         -2.2580169640        0.9983872419       -0.8454792563
 C         -1.2904544127        0.0931184961       -0.4299476088
 H         -1.5468433345       -0.6128370644        0.3418447520
 N         -3.5238209542        0.9761985821       -0.2391323821
 S         -4.1654527276       -0.5040154395        0.2537317741
 O         -3.6422053312       -0.8368125619        1.5546400058
 O         -3.9804685302       -1.4947442014       -0.7826809953
 C         -5.8904754780       -0.0719908865        0.3927363488
 C         -6.3251099137        0.5651366369        1.5397792102
 C         -7.6587373673        0.9283266907        1.6396584909
 C         -8.5305763871        0.6509114848        0.5970479330
 C         -8.0802759311        0.0096889987       -0.5471433386
 C         -6.7474061098       -0.3553479757       -0.6540760012
 H         -6.3544548095       -0.8633982161       -1.5200506129
 H         -8.7611480980       -0.2076273605       -1.3542698345
 H         -9.5682118661        0.9337067196        0.6783351812
 H         -8.0129917871        1.4245163608        2.5287870008
 H         -5.6130572410        0.7517652797        2.3268826642
 H         -4.2063525650        1.5397507947       -0.7269963139
 H         -2.7164710299        2.6307060757       -2.1608758798
 H         -0.4650698384        2.6560960945       -3.1709505990
 H          1.2418685392        1.0351088525       -2.4357164238
 H          1.2718035020       -1.5177517522       -1.4567506769
 C          0.6530336375       -1.7658092463        0.5737230897
 C         -0.1843996692       -2.9862127304        0.3394981988
 C          1.2638929094       -3.1281994051        0.6969435954
 H          1.5199536143       -3.4920132137        1.6807024485
 H          1.9532350384       -3.4335755695       -0.0767789735
 H         -0.9309044861       -3.2459620349        1.0756255901
 H         -0.4844899341       -3.1985105461       -0.6758461509
 H          0.4896718780       -1.2058925934        1.4887134969
