  62
        -98.94468715
 C          2.0134817297        0.7541919207        0.5612734736
 C          1.9553255275        0.0505093393       -0.6658513012
 C          2.0012612910       -1.4119653569       -0.5637050821
 C          2.0350178131       -1.9970664873        0.6468069210
 C          2.0342165084       -3.4779709129        0.9153707249
 C          3.4195498507       -4.1335485405        0.8279342464
 C          3.9836574768       -4.2778704333       -0.5860383432
 H          4.8472285927       -4.9424498232       -0.5195507018
 H          3.2439473708       -4.7655449976       -1.2214818225
 C          4.4258418216       -2.9560742815       -1.2290635269
 H          4.5325875856       -2.1925105496       -0.4552135904
 H          5.4072655288       -3.0856885875       -1.6904885115
 C          3.4816292040       -2.4315364897       -2.3108668565
 H          3.4639013009       -3.1279231838       -3.1520260414
 H          3.8697486024       -1.4757522349       -2.6714359786
 C          2.0407992587       -2.2060241728       -1.8338459319
 H          1.5064232758       -1.6316339439       -2.5946398518
 H          1.5311084617       -3.1601260343       -1.6997245694
 H          4.1157895706       -3.5577871287        1.4419543726
 H          3.3348972895       -5.1304973861        1.2664621238
 H          1.6530159039       -3.6069582266        1.9309620184
 H          1.3486282351       -3.9704477704        0.2247731424
 O          2.0557700303       -1.2849776629        1.8065227488
 C          2.0475536325        0.1003906727        1.7910044727
 O          2.0755047958        0.6278545255        2.9237231303
 H         -0.4661629247        1.1764325677        0.9560898448
 C         -0.5194314228        1.9754186915        0.2293876447
 C          0.6302984845        2.6825051918       -0.0991620681
 C          0.5318446237        3.7181875449       -1.0188775759
 C         -0.6825490347        4.0062951900       -1.6183081134
 C         -1.8126709462        3.2653729189       -1.3270542707
 C         -1.7280365950        2.2405147607       -0.3904876222
 N         -2.8574319959        1.4760144748       -0.0473186592
 S         -2.6241095663       -0.1482554781        0.3551659787
 O         -2.2657340892       -0.2328939491        1.7502349194
 O         -1.7238112006       -0.7811763000       -0.5816891118
 C         -4.2832426178       -0.7637765828        0.1293152163
 C         -5.2093032932       -0.5628227992        1.1355591177
 C         -6.5087595206       -1.0066300965        0.9484676326
 C         -6.8590631425       -1.6395536450       -0.2350923914
 C         -5.9184965642       -1.8360818343       -1.2350098910
 C         -4.6172869479       -1.3933752110       -1.0547914768
 H         -3.8493996296       -1.5299751681       -1.7994839527
 H         -6.1922864239       -2.3315279438       -2.1524998018
 H         -7.8708255792       -1.9844890691       -0.3780051859
 H         -7.2416315744       -0.8580983420        1.7249420462
 H         -4.8866330104       -0.0746318380        2.0403743212
 H         -3.6194027824        1.5885137166       -0.7025214957
 H         -2.7515994663        3.4740544476       -1.8168037652
 H         -0.7445472154        4.8082927883       -2.3381850957
 H          1.4081688990        4.2895122879       -1.2779867563
 C          1.9231564747        2.2698071136        0.5638713781
 H          1.8808064156        2.5722736539        1.6211116350
 C          3.1530841364        2.8807374836       -0.0743829694
 C          3.6417676486        4.2285981318        0.3613540798
 C          4.4063492658        2.9963920488        0.7383306802
 H          5.3531821178        2.8059026409        0.2559038952
 H          4.3624847771        2.6573533102        1.7634484754
 H          4.0690014560        4.8865898260       -0.3802080200
 H          3.0863318887        4.7350348407        1.1362027960
 H          3.2558578442        2.6077343798       -1.1183025122
 O          1.8718558934        0.6142429980       -1.7886466518
