  62
        -98.94227733
 C          1.2020799576        0.9220432047        0.4340113194
 C          2.0747748348        0.7093468350       -0.6569749245
 C          3.0693857712       -0.3681997664       -0.5020911347
 C          3.0725797947       -1.1117364466        0.6198689600
 C          3.9222400808       -2.2978922580        1.0269418672
 C          5.2096537207       -2.6325689876        0.2779501651
 C          6.3270616247       -1.6013352554        0.4317418447
 H          6.6853758829       -1.6289935861        1.4638414839
 H          7.1548349370       -1.8977368365       -0.2161164735
 C          5.9405981995       -0.1586305711        0.1159574742
 H          6.8272826525        0.4640770063        0.2621427961
 H          5.1864001874        0.1829334710        0.8277400304
 C          5.4298262026        0.0857577457       -1.3026997992
 H          5.3511487762        1.1671927651       -1.4416828520
 H          6.1555071369       -0.2923843428       -2.0252589943
 C          4.0532719395       -0.5218666088       -1.6259318601
 H          3.6324200422        0.0241206473       -2.4755497997
 H          4.1383695032       -1.5652301922       -1.9211742181
 H          4.9979514282       -2.8120060578       -0.7720754572
 H          5.5723744059       -3.5771924630        0.6926085326
 H          4.1537809449       -2.1481190146        2.0865000611
 H          3.2557027337       -3.1668163440        0.9775235124
 O          2.1739832347       -0.9003745763        1.6265213501
 C          1.2224691296        0.1003288875        1.5584921760
 O          0.4628638186        0.1578160776        2.5480638739
 H         -0.8087606196       -0.3923073709       -0.2869656285
 C         -1.2488840450        0.3786549043       -0.9003602966
 C         -0.8464225280        1.6966570140       -0.7368697553
 C         -1.4039666056        2.6652810573       -1.5619859804
 C         -2.3295151519        2.3099313261       -2.5283727692
 C         -2.7396366736        0.9969998602       -2.6755022687
 C         -2.1914389889        0.0219208201       -1.8502471147
 N         -2.5779458595       -1.3239265856       -1.9472644403
 S         -2.7079743251       -2.2297128700       -0.5461037542
 O         -1.4023631174       -2.6111225237       -0.0674642328
 O         -3.5857077346       -3.3220791923       -0.9111503380
 C         -3.5392296839       -1.1540395217        0.6099273730
 C         -2.8700537223       -0.5992161028        1.6810656349
 C         -3.5531560200        0.2738756271        2.5145037007
 C         -4.8824538891        0.5756391142        2.2663336099
 C         -5.5436791799        0.0026761248        1.1900676654
 C         -4.8668917411       -0.8673230914        0.3524165962
 H         -5.3480034652       -1.3424885982       -0.4870131774
 H         -6.5794991375        0.2339716939        1.0013253108
 H         -5.4052809268        1.2583344091        2.9174033564
 H         -3.0298252674        0.7135626275        3.3488404689
 H         -1.8328242276       -0.8393306184        1.8582789845
 H         -3.3370737486       -1.5061278329       -2.5870857954
 H         -3.4672573367        0.7253271749       -3.4245277861
 H         -2.7466452163        3.0700088212       -3.1711502205
 H         -1.1084799608        3.6958999136       -1.4538291619
 C          0.1408908835        2.0036956963        0.3643189089
 H         -0.4055673831        1.9503989085        1.3185183985
 C          0.7766661256        3.3729220954        0.2430763442
 C          0.1064008128        4.5729264260        0.8397741779
 C          1.3449572839        4.0149808695        1.4718868695
 H          2.2672837858        4.5693855407        1.3850716625
 H          1.2478294103        3.4746366150        2.4027308361
 H          0.1805102058        5.5162929285        0.3201016777
 H         -0.8328381154        4.4202763430        1.3495054280
 H          1.3234995721        3.4961589741       -0.6842530745
 O          2.0273655058        1.3810850432       -1.7208170506
