  62
        -98.93704630
 C         -2.6239913628       -0.1147313411        0.4935914683
 C         -2.1608283841        0.4546339831       -0.7145774337
 C         -1.8339112650        1.8943548339       -0.6930350908
 C         -2.0044960973        2.5817176012        0.4513698957
 C         -1.7610189542        4.0443350678        0.7215454651
 C         -0.2750808584        4.3961274106        0.8688482661
 C          0.6283560266        3.8270063210       -0.2210811781
 H          1.6556307269        4.1161744648        0.0183945208
 H          0.5932560396        2.7360930630       -0.1922070313
 C          0.3282967846        4.3177059866       -1.6359783373
 H          1.1319758335        3.9469523144       -2.2775107664
 H          0.3644455681        5.4095505571       -1.6528038217
 C         -1.0015115923        3.8610622429       -2.2436594912
 H         -0.9328327773        4.0119196377       -3.3248589509
 H         -1.8309644085        4.4735577246       -1.8987862155
 C         -1.3217017607        2.3862333767       -2.0240308377
 H         -2.0736578391        2.0733563145       -2.7583862907
 H         -0.4330125410        1.7820865635       -2.2475229220
 H         -0.1830634675        5.4840527321        0.8898242926
 H          0.0741469405        4.0071623341        1.8284952611
 H         -2.2203465248        4.6485950500       -0.0552386020
 H         -2.2663724073        4.2717141928        1.6632703334
 O         -2.4490480653        1.9848118305        1.5968588892
 C         -2.7351127344        0.6362347205        1.6604877985
 O         -3.0762214506        0.2292444555        2.7916776406
 O         -2.0306249624       -0.2067719926       -1.7789749327
 C         -2.9247349632       -1.6025417426        0.5622609158
 C         -1.6962003079       -2.3605171512        0.1214551374
 C         -1.7087295939       -3.3987935170       -0.8003950398
 C         -0.5242988465       -3.9776971181       -1.2249075924
 C          0.6952633047       -3.5323361932       -0.7472837356
 C          0.7123572635       -2.5216345136        0.2011308538
 C         -0.4720169406       -1.9588247896        0.6407553248
 H         -0.4423835225       -1.1512554276        1.3636701072
 N          1.9658879265       -2.0065676459        0.6533368736
 S          2.3521686356       -0.6230766952       -0.2523450565
 O          1.5771199226        0.5086733948        0.2109301010
 O          2.2452491284       -0.9593465883       -1.6486861767
 C          4.0680220420       -0.4039220074        0.1823326327
 C          4.4434837738        0.6208714546        1.0281726329
 C          5.7791949426        0.7448405954        1.3789959100
 C          6.7091690729       -0.1564996089        0.8843985642
 C          6.3160187699       -1.1816067104        0.0363919420
 C          4.9832341976       -1.3093453640       -0.3192128887
 H          4.6302594091       -2.0838268345       -0.9794369289
 H          7.0423738593       -1.8800231632       -0.3467222549
 H          7.7471632971       -0.0585369239        1.1605352612
 H          6.0871434082        1.5419753354        2.0364117450
 H          3.6856991345        1.2999667868        1.3855641013
 H          1.9005274548       -1.7031212542        1.6180697624
 H          1.6259652991       -3.9415780658       -1.1039224160
 H         -0.5523258589       -4.7712085831       -1.9561258719
 H         -2.6469895003       -3.7381909078       -1.2084943627
 H         -3.1169191386       -1.8279270952        1.6217014496
 C         -4.1628786507       -1.9332180841       -0.2435370209
 C         -5.0215937840       -3.1010990401        0.1365029445
 C         -5.5088762622       -1.7040675259        0.3730492718
 H         -6.3019752125       -1.3192700012       -0.2500820692
 H         -5.5303658794       -1.3308497882        1.3867825044
 H         -5.4856075591       -3.6769878382       -0.6497968592
 H         -4.7215388475       -3.6838876255        0.9941082552
 H         -4.0460083956       -1.6989715456       -1.2955010935
