  62
        -98.93896239
 C         -2.0387365231       -0.8093703622        0.5744175808
 C         -2.0518674711       -0.0848362659       -0.6392022337
 C         -2.1408435774        1.3811252614       -0.5286340423
 C         -2.1604574779        1.9529278678        0.6893214716
 C         -2.1746851012        3.4102307682        1.1028628667
 C         -2.5618803547        4.5015678842        0.1076237363
 C         -4.0140020337        4.4544658802       -0.3651235768
 H         -4.6636093032        4.6962752766        0.4796455658
 H         -4.1489824578        5.2295591190       -1.1226245066
 C         -4.4766038543        3.1165721308       -0.9365728865
 H         -5.5156489428        3.2314518304       -1.2566894745
 H         -4.4635070956        2.3578189556       -0.1514520859
 C         -3.6752197515        2.6048998849       -2.1324620297
 H         -4.2144521925        1.7488110904       -2.5460834171
 H         -3.6307347239        3.3768227771       -2.9028945793
 C         -2.2412849091        2.1378940188       -1.8210410873
 H         -1.9305280946        1.4410872467       -2.6050339225
 H         -1.5373935309        2.9671322252       -1.8301594109
 H         -1.8854192524        4.4910077733       -0.7419193268
 H         -2.4119144865        5.4552293611        0.6212363577
 H         -2.8387051056        3.4651222271        1.9715719698
 H         -1.1639293119        3.6198835058        1.4719822569
 O         -2.1135113617        1.2109133603        1.8361983468
 C         -2.0485985862       -0.1703211677        1.8107700347
 O         -2.0131550949       -0.7058773308        2.9390940418
 H          0.4753238370       -1.2119116016        0.9201151039
 C          0.5200918198       -1.9820935712        0.1623359546
 C         -0.6296305943       -2.6907580144       -0.1637299122
 C         -0.5445974983       -3.6877534818       -1.1262777655
 C          0.6566940621       -3.9374398336       -1.7678716350
 C          1.7868606331       -3.1981279846       -1.4733600195
 C          1.7163528490       -2.2124315611       -0.4942855826
 N          2.8510259552       -1.4586105029       -0.1449434730
 S          2.6320253656        0.1421083836        0.3461161793
 O          2.2838019250        0.1557776584        1.7461495497
 O          1.7303267545        0.8317475238       -0.5489937844
 C          4.2963211630        0.7513775894        0.1431152924
 C          5.2316306726        0.4501460877        1.1153402742
 C          6.5367403606        0.8844734175        0.9470246604
 C          6.8833487090        1.6083062568       -0.1844290871
 C          5.9335396230        1.9050252809       -1.1502568153
 C          4.6265101142        1.4718845354       -0.9889226865
 H          3.8521246894        1.6830507058       -1.7090253131
 H          6.2047966079        2.4704618030       -2.0271470232
 H          7.8996906812        1.9453609086       -0.3130010310
 H          7.2768801516        0.6575720272        1.6972193729
 H          4.9116224148       -0.1065359626        1.9806925783
 H          3.5952943126       -1.5355725370       -0.8252155129
 H          2.7157083380       -3.3785270220       -1.9926461797
 H          0.7083397112       -4.7086425303       -2.5214296709
 H         -1.4212094299       -4.2585368183       -1.3852592289
 C         -1.9069994958       -2.3215346625        0.5521749321
 H         -1.8147180930       -2.6344769066        1.6032059285
 C         -3.1447612463       -2.9582282256       -0.0439138148
 C         -3.5672489049       -4.3315799874        0.3813290129
 C         -4.3541119377       -3.1352002873        0.8224708930
 H         -5.3282837811       -2.9667052417        0.3887656263
 H         -4.2739061086       -2.8178474370        1.8523205684
 H         -2.9590811714       -4.8356681635        1.1171402890
 H         -4.0063324219       -4.9872612316       -0.3553056820
 H         -3.3052250969       -2.6653416653       -1.0750351864
 O         -1.9920127704       -0.6350752874       -1.7706225034
