  62
        -98.94557807
 C         -2.5159814708       -1.1647966196       -0.0117040702
 C         -3.1536889706       -0.3184329793        0.9262507096
 C         -3.7303641802        0.9174375408        0.3870592094
 C         -3.6351801400        1.1789535506       -0.9294795806
 C         -4.1778139795        2.3947146407       -1.6304490808
 C         -3.2406108191        3.6093748204       -1.5779504209
 C         -3.1421598890        4.2963469506       -0.2151860509
 H         -2.6285317787        5.2468733704       -0.3721042210
 H         -4.1443481590        4.5225866309        0.1502797390
 C         -2.3752662594        3.4928346104        0.8447950192
 H         -1.7802182296        2.7180222702        0.3530802294
 H         -1.6703195092        4.1493201203        1.3608670292
 C         -3.2604142397        2.8458219709        1.9109833692
 H         -3.7565123295        3.6244797111        2.4942776391
 H         -2.6195498599        2.2754226207        2.5886782694
 C         -4.3281327499        1.8942891511        1.3543381993
 H         -4.7471977202        1.3249689714        2.1875066093
 H         -5.1274145797        2.4619813013        0.8793619391
 H         -2.2438561492        3.2969299101       -1.9003337807
 H         -3.6102234688        4.3387283305       -2.3023806010
 H         -4.3178739995        2.1140670206       -2.6764229608
 H         -5.1466748395        2.6617951311       -1.2079134809
 O         -3.0250124602        0.3337942203       -1.8016378204
 C         -2.4172172406       -0.8353471098       -1.3639637602
 O         -1.8464094007       -1.4814528101       -2.2621509901
 O         -3.2273179008       -0.5782768591        2.1582247397
 C         -1.8305323613       -2.4247134198        0.4891667500
 C         -0.3411123512       -2.2685928503        0.2999076301
 C          0.4554560786       -3.1771465506       -0.3824461397
 C          1.8076037687       -2.9310230911       -0.5536647496
 C          2.3929345590       -1.7853177912       -0.0475366697
 C          1.6061854492       -0.8739201809        0.6453880301
 C          0.2556565491       -1.1247992904        0.8184340800
 H         -0.3573532007       -0.4092406801        1.3539493399
 N          2.1939314596        0.2978391890        1.1665014900
 S          2.9005197200        1.3324105286        0.0413007200
 O          2.8637182304        2.6427359687        0.6543997298
 O          2.2738101801        1.2117455387       -1.2555723201
 C          4.5877572298        0.7704052981       -0.0312498198
 C          5.1178557198        0.3263722378       -1.2265337797
 C          6.4326117896       -0.1130436027       -1.2531296795
 C          7.1884360095       -0.1004921628       -0.0907470095
 C          6.6415060296        0.3517515076        1.1010855604
 C          5.3286100197        0.7933814880        1.1344245702
 H          4.8651356298        1.1564180883        2.0364293302
 H          7.2326068995        0.3604711375        2.0025725705
 H          8.2100867894       -0.4453821931       -0.1140812794
 H          6.8595872596       -0.4642427829       -2.1787578295
 H          4.4888384999        0.3285022879       -2.1026196498
 H          1.5636875397        0.8241500393        1.7558685399
 H          3.4434712391       -1.5881932216       -0.1858994896
 H          2.4136065285       -3.6421431213       -1.0939262195
 H          0.0159597383       -4.0707425905       -0.7936382496
 H         -2.0354947714       -2.4566193996        1.5696444600
 C         -2.4090818516       -3.6652248597       -0.1541211699
 C         -2.3138763021       -4.9852681196        0.5493237303
 C         -3.6348239418       -4.2862034092        0.4435226401
 H         -4.3832209219       -4.6906054590       -0.2212104599
 H         -4.0436693918       -3.8243400490        1.3304345800
 H         -2.1570990623       -5.8745591997       -0.0419407096
 H         -1.8259718822       -5.0031344897        1.5120219903
 H         -2.3322220715       -3.6508796298       -1.2350845999
