  62
        -98.93633654
 C          2.6047352397        1.2355140498        0.2493979894
 C          2.7742424196        0.2878447698       -0.7873421106
 C          3.8584069596       -0.6955375703       -0.6063018106
 C          4.6206226796       -0.6539436103        0.4989444894
 C          5.7976971095       -1.5220458704        0.8671405594
 C          5.6817186195       -3.0292125304        0.6015542794
 C          4.2679518094       -3.6086957003        0.7545131994
 H          4.3121251194       -4.4832795103        1.4061627094
 H          3.6134942495       -2.8783495003        1.2335451194
 C          3.6542763994       -4.0472778403       -0.5773453506
 H          4.4167202994       -4.5691515903       -1.1597509306
 H          2.8515153894       -4.7607134302       -0.3761528506
 C          3.0589624695       -2.9247050902       -1.4262542206
 H          2.7586875694       -3.3517117902       -2.3863732306
 H          2.1527346395       -2.5411821002       -0.9490701406
 C          3.9901141995       -1.7293539703       -1.6880097206
 H          5.0207571695       -2.0523812404       -1.8116500806
 H          3.6644110595       -1.2445722803       -2.6123522206
 H          6.3556865294       -3.5244957604        1.3025625094
 H          6.0507710794       -3.2533222704       -0.3983686606
 H          6.6795081896       -1.1344940504        0.3485077994
 H          5.9521141396       -1.3497380504        1.9350072494
 O          4.4240623696        0.2758508997        1.4752570494
 C          3.4283808697        1.2280736098        1.3799029494
 O          3.3779447997        2.0098972198        2.3502605594
 H          0.0406975896        0.5234235399       -1.1158702106
 C         -0.4635261903        0.8924085400       -0.2347573206
 C          0.1800290097        1.8147574899        0.5781084494
 C         -0.4787682602        2.2723927400        1.7133706794
 C         -1.7481171903        1.8167046300        2.0234014194
 C         -2.3842689803        0.8946380201        1.2117746494
 C         -1.7336969604        0.4285594000        0.0768745794
 N         -2.3626481904       -0.5253219999       -0.7438576406
 S         -3.9105759504       -0.1821873699       -1.2974243406
 O         -4.0669434104       -0.9634152199       -2.5048212006
 O         -4.1253399503        1.2413006501       -1.4209863506
 C         -4.9761226604       -0.8496989398       -0.0361676506
 C         -4.8360391305       -2.1823736098        0.2984465395
 C         -5.6660024705       -2.7189206098        1.2697831195
 C         -6.6187603705       -1.9195897197        1.8840386695
 C         -6.7494408704       -0.5844014097        1.5341647495
 C         -5.9214531404       -0.0411598897        0.5640442794
 H         -5.9823549003        0.9927032303        0.2635788494
 H         -7.4910190304        0.0351410103        2.0123482895
 H         -7.2632659705       -2.3400379797        2.6397974395
 H         -5.5674846006       -3.7568151498        1.5445285795
 H         -4.0861085505       -2.7695887199       -0.2049411505
 H         -1.7772029904       -0.8409331500       -1.5045086306
 H         -3.3725222203        0.5356006601        1.4486715694
 H         -2.2473760102        2.1820650601        2.9078033294
 H          0.0160462998        2.9842279299        2.3582485494
 C          1.5532093898        2.3344648198        0.2225428194
 H          1.8529303498        3.0426128898        1.0065821894
 C          1.5159018098        3.0780229798       -1.0998303706
 C          0.9344178999        4.4576019399       -1.1407361406
 C          2.4115870398        4.2610116198       -1.3020572206
 H          2.8515120198        4.4135335898       -2.2761870206
 H          3.0563032999        4.5449201998       -0.4827688506
 H          0.3545828499        4.7461634299       -2.0041551406
 H          0.5775259499        4.8776297799       -0.2124920306
 H          1.3444301197        2.4342738098       -1.9524752706
 O          2.0750438996        0.2439714398       -1.8359662706
