  62
        -98.93366481
 C          2.4199058720        1.3929862800        0.4395373153
 C          2.3989132501        0.5431448266       -0.6939782021
 C          3.3149127260       -0.6116431664       -0.6528363928
 C          4.0730876427       -0.8164649124        0.4384530890
 C          4.9903954353       -1.9852486992        0.6605711213
 C          4.1697444798       -3.2314365046        1.0500780514
 C          4.2170537846       -4.3635274180        0.0237705749
 H          3.4422823579       -5.0835995714        0.2960238221
 H          5.1809212122       -4.8711240057        0.0995064578
 C          4.0197609277       -3.9483802696       -1.4373595563
 H          3.8134723638       -4.8604339203       -2.0013741712
 H          4.9517965526       -3.5418128688       -1.8327618953
 C          2.8936460607       -2.9410023637       -1.7049668379
 H          2.1363363330       -2.9872692656       -0.9210536146
 H          2.3972406439       -3.2251475299       -2.6353054768
 C          3.3632212784       -1.4841111131       -1.8765695988
 H          2.7033994113       -0.9913212229       -2.5970034834
 H          4.3743486700       -1.4737016905       -2.2933766367
 H          3.1326473648       -2.9251095710        1.2057005587
 H          4.5279190604       -3.6200585589        2.0046172354
 H          5.6733298964       -1.7138262902        1.4658445169
 H          5.5696671996       -2.1744995278       -0.2402979180
 O          4.0268149472       -0.0070112107        1.5288693672
 C          3.1995301114        1.1039859877        1.5615043940
 O          3.2402760461        1.7389829472        2.6344834597
 O          1.6642981754        0.7292198790       -1.6975710873
 C          1.5288131357        2.6206952248        0.5355173308
 C          0.1247263063        2.2663375925        0.1103802912
 C         -0.5414473619        2.8677480970       -0.9482700035
 C         -1.8251457727        2.4712797861       -1.2811816583
 C         -2.4724080761        1.4794873191       -0.5676766739
 C         -1.8131621636        0.8676202843        0.4905892217
 C         -0.5291676978        1.2687047839        0.8236287443
 H         -0.0112434135        0.7867698050        1.6453711653
 N         -2.4651843947       -0.1342301581        1.2325270788
 S         -3.1826328236       -1.4043539667        0.3988967872
 O         -3.2118646477       -2.5001135803        1.3444452290
 O         -2.5244259990       -1.6606600453       -0.8607000197
 C         -4.8471342526       -0.8368189966        0.1199793826
 C         -5.6003462296       -0.4647183398        1.2162411464
 C         -6.8987181756       -0.0235617345        1.0171183801
 C         -7.4198384443        0.0349769753       -0.2669785672
 C         -6.6520802847       -0.3459916841       -1.3567732165
 C         -5.3520068400       -0.7874400455       -1.1645029543
 H         -4.7153642010       -1.0885324739       -1.9813697035
 H         -7.0587721488       -0.3003305731       -2.3542658151
 H         -8.4304288784        0.3795554628       -0.4193850375
 H         -7.4988645764        0.2731302780        1.8621094449
 H         -5.1589701860       -0.5291746403        2.1967360967
 H         -1.9142448239       -0.4886423900        2.0012044918
 H         -3.4700692818        1.1661265913       -0.8283792806
 H         -2.3287597411        2.9406203797       -2.1125479223
 H         -0.0453716925        3.6259363968       -1.5312311997
 H          1.4990795329        2.8618738186        1.6112973048
 C          2.0814726633        3.8530484058       -0.1643680930
 C          3.5593154971        4.0580969817       -0.3087214180
 C          2.7172445848        3.7964964713       -1.5194479365
 H          2.5376574154        4.6141618702       -2.2022657616
 H          2.7867401089        2.8339271420       -2.0001195326
 H          3.9561719323        5.0510023289       -0.1594869755
 H          4.2101342167        3.2707200356        0.0436187930
 H          1.4961255803        4.7388917619        0.0621951062
