  62
        -98.94523709
 C         -2.4504581176       -1.2109801849       -0.0831982049
 C         -3.5151470477       -0.8089627438        0.7636033652
 C         -4.3903539076        0.2459449873        0.2434535515
 C         -4.1527109957        0.7692253185       -0.9729648114
 C         -4.9645079641        1.8398076554       -1.6503181031
 C         -4.5883196199        3.2675293376       -1.2307090104
 C         -5.0282583165        3.6694907763        0.1776609551
 H         -4.8990056375        4.7507506965        0.2564842091
 H         -6.0912502575        3.4587819161        0.2988761536
 C         -4.2350073648        2.9946662193        1.3054821916
 H         -3.3061744630        2.5832055449        0.9024983615
 H         -3.9544386229        3.7425178875        2.0506009854
 C         -4.9920797539        1.8869682530        2.0383012392
 H         -5.8510728140        2.3141157646        2.5603447287
 H         -4.3236756444        1.4535182079        2.7864001080
 C         -5.4867070278        0.7528849381        1.1311594216
 H         -5.8110976170       -0.0761172291        1.7647440225
 H         -6.3336673212        1.0902934706        0.5343784363
 H         -5.0570937238        3.9500894269       -1.9433784279
 H         -3.5056706872        3.3846937974       -1.3222430357
 H         -6.0248938574        1.6708651781       -1.4605988068
 H         -4.7815582938        1.7369044616       -2.7221178535
 O         -3.1242897960        0.3537581547       -1.7582998236
 C         -2.2381885160       -0.6259489324       -1.3314886963
 O         -1.3382230753       -0.8813537911       -2.1560926349
 O         -3.7263136533       -1.3142297083        1.8975055749
 C         -1.4996721030       -2.2790421012        0.4337413874
 C         -0.1784929238       -1.6181306704        0.7392786140
 C         -0.0010201674       -0.9810510358        1.9644398797
 C          1.1712784359       -0.3047232641        2.2447578776
 C          2.1862199746       -0.2379375521        1.3056779680
 C          2.0103828432       -0.8529039874        0.0740274284
 C          0.8427726620       -1.5544175546       -0.1957904337
 H          0.7144863396       -2.0159164865       -1.1621037219
 N          3.0272770842       -0.7728764047       -0.8944078396
 S          3.6730971019        0.7430143814       -1.2227390148
 O          2.7282932107        1.8019694709       -0.9508326354
 O          4.1753814889        0.6574480248       -2.5769548769
 C          5.0569119413        0.8556710155       -0.1055313652
 C          5.1698025328        1.9354946027        0.7480745755
 C          6.2596054752        2.0039604091        1.6023387609
 C          7.2127750265        0.9973584581        1.5870588361
 C          7.0867913712       -0.0788499421        0.7211824559
 C          6.0004266678       -0.1526789013       -0.1357555343
 H          5.8668505699       -0.9688036601       -0.8258555096
 H          7.8301984952       -0.8595775850        0.7117306556
 H          8.0588825018        1.0522672256        2.2536771119
 H          6.3592193064        2.8405040279        2.2752556761
 H          4.4009875828        2.6917273924        0.7287327649
 H          2.7893293814       -1.2433430552       -1.7563949411
 H          3.0981496007        0.2982203197        1.5116103630
 H          1.2966139218        0.1797341364        3.2011933322
 H         -0.8031072798       -1.0115544753        2.6886365318
 H         -1.9377231314       -2.6194427446        1.3815750990
 C         -1.3914049910       -3.4627339020       -0.5039881627
 C         -0.7727575891       -4.7335251241       -0.0054035522
 C         -2.2474433569       -4.6682772789       -0.2623642658
 H         -2.6472649216       -5.1939445544       -1.1165659161
 H         -2.9145445517       -4.6452817753        0.5867341719
 H         -0.1575152754       -5.3079114983       -0.6808742578
 H         -0.4373063563       -4.7524590540        1.0204015202
 H         -1.2162639865       -3.1827735082       -1.5355165170
