  62
        -98.94414224
 C          2.6284481494        1.3068990404        0.1480997392
 C          2.6368476695        0.2761991703       -0.8222454407
 C          3.7889977798       -0.6367683194       -0.7748261808
 C          4.7498456199       -0.4421110490        0.1467197691
 C          5.9530821802       -1.3195336386        0.3326747590
 C          5.6775205706       -2.4328474386        1.3527725992
 C          4.3775764108       -3.1956744290        1.0973576395
 H          4.3036710312       -3.9768348089        1.8570223996
 H          3.5308698707       -2.5215331392        1.2472212195
 C          4.2771854008       -3.8288754392       -0.2973978905
 H          5.2688354107       -3.8965940690       -0.7462955506
 H          3.8979980511       -4.8476353393       -0.1930888103
 C          3.3353182304       -3.1012179596       -1.2588916204
 H          3.1698817205       -3.7467277797       -2.1258974603
 H          2.3649735205       -2.9480150798       -0.7784848003
 C          3.8319445600       -1.7485062895       -1.7850981206
 H          4.8381722299       -1.8601031193       -2.1944594408
 H          3.1628180198       -1.4430737198       -2.5950532206
 H          6.5181686608       -3.1288281084        1.3396427891
 H          5.6216938407       -1.9852244585        2.3476346891
 H          6.2325070701       -1.7515808987       -0.6261765910
 H          6.7755118601       -0.7013494484        0.6964264088
 O          4.7100877397        0.5643745311        1.0564164390
 C          3.6469288695        1.4500679108        1.0918991290
 O          3.7228532594        2.3094240109        1.9926362189
 O          1.7377258794        0.1255383599       -1.6916135905
 C          1.4815482491        2.3025036601        0.2071165392
 C          0.2058309794        1.5577819297        0.5160701095
 C          0.0662423697        0.9700571398        1.7713452396
 C         -1.0686973500        0.2510729296        2.0911186799
 C         -2.0884557001        0.0975435892        1.1665397900
 C         -1.9511496305        0.6635127190       -0.0926217300
 C         -0.8138431607        1.3996258093       -0.4066027803
 H         -0.7203592610        1.8290109592       -1.3912604904
 N         -2.9772285206        0.5272785386       -1.0383436399
 S         -3.8337161702       -0.9059305016       -1.1618626896
 O         -3.0302225498       -2.0549021813       -0.8150253496
 O         -4.3908287604       -0.8905053819       -2.4969478595
 C         -5.1544962001       -0.7018413219        0.0167811706
 C         -5.4313106096       -1.7072928918        0.9221184108
 C         -6.4709620895       -1.5323158820        1.8224037909
 C         -7.2124915999       -0.3612275822        1.8009856509
 C         -6.9242273803        0.6378387277        0.8831541707
 C         -5.8872815904        0.4683952079       -0.0201072994
 H         -5.6333385507        1.2201973079       -0.7484239996
 H         -7.5028344806        1.5474465276        0.8696189307
 H         -8.0196371198       -0.2264300224        2.5036157410
 H         -6.6965881592       -2.3085098120        2.5359779110
 H         -4.8241167794       -2.5986613917        0.9071828408
 H         -2.7520553008        0.9032922686       -1.9476025600
 H         -2.9710937599       -0.4718790311        1.4069473802
 H         -1.1638628397       -0.1963805703        3.0689661999
 H          0.8679458098        1.0817640802        2.4891071395
 H          1.7011601191        2.9645709602        1.0559830791
 C          1.4237466287        3.1350922299       -1.0560637609
 C          0.6799522083        4.4359188997       -1.0531842509
 C          2.1773583483        4.4284272601       -1.1099652611
 H          2.6611662781        4.7038571401       -2.0351363212
 H          2.7266326884        4.7212840304       -0.2270691112
 H          0.1349863281        4.7219729794       -1.9400247709
 H          0.2094586384        4.7375070297       -0.1297628209
 H          1.4041825987        2.5359084098       -1.9588110608
