  62
        -98.93987512
 C         -1.8764825294       -0.5533784299        0.0045632206
 C         -2.4444589196        0.7271362498        0.2304290717
 C         -3.8544955597        0.8956680199       -0.1431132780
 C         -4.5167769296       -0.1431372098       -0.6833887388
 C         -5.9685426396       -0.1332440998       -1.0636200586
 C         -6.8511953994       -0.6068879809        0.0994834112
 C         -6.5460642393        0.0858751681        1.4275645017
 H         -7.2494868792       -0.3030992426        2.1669556815
 H         -5.5439108593       -0.1986069220        1.7563470213
 C         -6.6465428896        1.6170087281        1.3823720629
 H         -7.1937916496        1.9586010873        2.2635311132
 H         -7.2184543198        1.9255994687        0.5065435432
 C         -5.2988518598        2.3412146184        1.3873735933
 H         -5.4834938500        3.4026151082        1.5740192942
 H         -4.6842820496        1.9676121878        2.2104320429
 C         -4.4814996299        2.2408642096        0.0931134631
 H         -5.1024294301        2.5308959501       -0.7572048866
 H         -3.6508190900        2.9488964497        0.1689084636
 H         -7.8956892995       -0.4387104209       -0.1690567886
 H         -6.7025310692       -1.6810084510        0.2317082403
 H         -6.1066985596       -0.8071469892       -1.9107273491
 H         -6.2527093599        0.8738260904       -1.3626757677
 O         -3.9388067794       -1.3487584796       -0.9029631898
 C         -2.6102282093       -1.5928885096       -0.5698272401
 O         -2.2372180091       -2.7485266393       -0.8379240411
 O         -1.7979331697        1.6868460396        0.7321166923
 C         -0.4231572193       -0.7318824799        0.4084761603
 C          0.4959626805       -0.4106220188       -0.7425585996
 C          0.3207970404       -1.0072913079       -1.9882762701
 C          1.1611444202       -0.6927940669       -3.0396439899
 C          2.1942962501        0.2122831532       -2.8694766593
 C          2.3768510301        0.8152427422       -1.6305113189
 C          1.5311665703        0.4977113412       -0.5747221390
 H          1.6679226903        0.9954872005        0.3736409914
 N          3.4074219400        1.7431340023       -1.4401089883
 S          4.1793134501        1.9045541412        0.0262019218
 O          3.3522408701        2.6232878703        0.9623803824
 O          5.4425505000        2.5286154517       -0.3054996079
 C          4.4725950105        0.2484388908        0.6251836804
 C          4.9155201006       -0.7228033784       -0.2511892004
 C          5.1726313309       -1.9955467287        0.2323574785
 C          4.9967163711       -2.2734028298        1.5790201183
 C          4.5602066110       -1.2861031906        2.4482926392
 C          4.2910543307       -0.0137609403        1.9680275002
 H          3.9343478507        0.7787886492        2.6065820509
 H          4.4208314512       -1.5023511715        3.4952537790
 H          5.1970545913       -3.2647367301        1.9527281775
 H          5.5084176310       -2.7661649281       -0.4424744221
 H          5.0535275704       -0.4820160075       -1.2923750002
 H          4.0301362899        1.8726905230       -2.2229216282
 H          2.8472281099        0.4610696339       -3.6921141992
 H          1.0133647402       -1.1601952062       -4.0014084403
 H         -0.4803576595       -1.7185782179       -2.1195403405
 H         -0.2523208794        0.0337433795        1.1825082808
 C         -0.1340495890       -2.0883472204        1.0372670791
 C          0.7546517911       -3.1182140397        0.4127646482
 C          1.2225216911       -2.3606060806        1.6161089088
 H          1.2884830114       -2.8746184313        2.5626696583
 H          1.9807131610       -1.6062727103        1.4676648693
 H          0.4699905313       -4.1528577399        0.5254793774
 H          1.2079902110       -2.8930053989       -0.5391227017
 H         -0.9857444988       -2.4659805010        1.5934005390
