  62
        -98.93456932
 C         -2.2993687495       -0.8839291865        0.1833418526
 C         -3.1236971721       -0.1838560742        1.0995428956
 C         -4.0728976884        0.8022216529        0.5495189824
 C         -4.1018470402        0.9927931519       -0.7821996073
 C         -5.0032025710        1.9000653830       -1.5764197029
 C         -6.4285056023        1.3414056685       -1.7186400873
 C         -7.0193590689        0.7520747396       -0.4403810015
 H         -7.9772852562        0.2930383731       -0.6989431226
 H         -6.3667737670       -0.0443142378       -0.0778269209
 C         -7.2703560326        1.7542498116        0.6838463910
 H         -7.9564316815        2.5263833052        0.3285050265
 H         -7.7685506177        1.2147243018        1.4934090157
 C         -6.0287812306        2.4363078838        1.2621300731
 H         -6.3304389634        2.9246706715        2.1933292736
 H         -5.6710050945        3.2231041446        0.6035103860
 C         -4.8880862359        1.4882830247        1.6189364192
 H         -4.1634024240        2.0314071227        2.2375044189
 H         -5.2729488219        0.6895458588        2.2630647898
 H         -7.0759446213        2.1382438428       -2.0884417712
 H         -6.4062614621        0.5486083928       -2.4704817107
 H         -5.0176579223        2.8917011343       -1.1339608552
 H         -4.5629449687        1.9862730955       -2.5723548613
 O         -3.2847732209        0.3045372976       -1.6281283457
 C         -2.3686818860       -0.6362875065       -1.1871937521
 O         -1.7017196449       -1.1502196434       -2.1063746383
 H          0.1993945319       -0.5455374229       -0.9746545428
 C          0.6840561825       -0.6604516593       -0.0158151835
 C          0.0243203377       -1.3351854609        1.0022175041
 C          0.6681081084       -1.4868131248        2.2244652940
 C          1.9404283106       -0.9771132354        2.4178526051
 C          2.5946118240       -0.3070989163        1.3997330855
 C          1.9596158112       -0.1492507843        0.1746128314
 N          2.6126400207        0.5373550764       -0.8658785308
 S          4.1465504141        0.0000873865       -1.2951052805
 O          4.3285676791        0.4143068058       -2.6688431201
 O          4.3068346851       -1.4094257398       -1.0212647881
 C          5.2333838614        0.9526554966       -0.2550982124
 C          5.1170188442        2.3287023525       -0.2832536152
 C          5.9610434029        3.0875849733        0.5115653221
 C          6.9038729836        2.4614350691        1.3135744222
 C          7.0100863943        1.0791609986        1.3280055317
 C          6.1678060160        0.3138173826        0.5362063331
 H          6.2089554924       -0.7635661614        0.5194268873
 H          7.7434862300        0.5946091757        1.9522512876
 H          7.5594414326        3.0547870728        1.9311930697
 H          5.8808055751        4.1626917788        0.5034770884
 H          4.3726287854        2.7745558214       -0.9218863295
 H          2.0373247618        0.6442724430       -1.6897575842
 H          3.5858722925        0.0906916342        1.5434900865
 H          2.4284520628       -1.1017357852        3.3722759190
 H          0.1605435711       -2.0006572079        3.0276130088
 C         -1.3491581043       -1.9115682658        0.7716874892
 H         -1.7757499647       -2.1483320147        1.7592441499
 C         -1.3120888266       -3.2084220066       -0.0271359663
 C         -0.1315668957       -3.6661609982       -0.8253361117
 C         -0.4851790379       -4.3650046225        0.4511650021
 H         -0.9042003433       -5.3584083201        0.4013151693
 H          0.1582551445       -4.1964313996        1.3014693484
 H         -0.3266785831       -4.1611905520       -1.7646867896
 H          0.7544413789       -3.0499972963       -0.8423183864
 H         -2.2854764476       -3.4495263030       -0.4432757229
 O         -3.0804838164       -0.3839539673        2.3432896775
