  62
        -98.93724320
 C         -1.5117082907       -1.5010007898        0.9126248515
 C         -2.6571494107       -1.1423830198        0.1657471715
 C         -3.2003782502        0.2129329405        0.4080094107
 C         -2.5902237098        1.0397432609        1.2746225800
 C         -2.9116064892        2.4529702013        1.7149331192
 C         -3.9538118990        3.2853478312        0.9742858688
 C         -3.5413954791        3.7103225801       -0.4351226815
 H         -4.3976231990        4.1928466701       -0.9124942017
 H         -2.7425131688        4.4519985099       -0.3537387222
 C         -3.0311658196        2.5935493693       -1.3430012509
 H         -2.1157266097        2.1637849093       -0.9289472108
 H         -2.7560283296        3.0432951786       -2.3019717212
 C         -4.0322149001        1.4752715195       -1.6262369700
 H         -3.5927827305        0.8293748488       -2.3917023296
 H         -4.9521536700        1.9002245196       -2.0343716601
 C         -4.3936919202        0.5884784804       -0.4236831894
 H         -5.1603011299        1.0524385111        0.1922742905
 H         -4.8042450906       -0.3492564997       -0.8103976487
 H         -4.1015109686        4.1956862616        1.5620012282
 H         -4.9071377492        2.7653399015        0.9545488293
 H         -1.9552645290        2.9864538909        1.7014430787
 H         -3.2100960890        2.3763269921        2.7666310193
 O         -1.4964791398        0.6425568109        1.9872031801
 C         -0.9224504803       -0.5952816794        1.7983616908
 O          0.1035818598       -0.7924202793        2.4832030208
 O         -3.2344954712       -1.8900578502       -0.6653399179
 C         -0.7250439412       -2.7979397101        0.7603032322
 C          0.6307129988       -2.4716300110        0.1816421418
 C          1.7837904586       -3.1226781312        0.6037240120
 C          3.0188834086       -2.7799828019        0.0816353916
 C          3.1331820489       -1.7510053326       -0.8362139191
 C          1.9868341490       -1.0863156724       -1.2532643094
 C          0.7458395690       -1.4746975417       -0.7757402089
 H         -0.1327886109       -0.9464943616       -1.1158109891
 N          2.0414331693        0.0328415770       -2.1147419101
 S          1.6643642000        1.4860318476       -1.3553025710
 O          0.3379801200        1.4228508785       -0.8027785407
 O          1.9003069402        2.5087927369       -2.3517751117
 C          2.8944802202        1.6113802380       -0.0691144913
 C          4.0715343104        2.2790696074       -0.3512014119
 C          5.0754317406        2.3049871576        0.6025925379
 C          4.8913398006        1.6533365185        1.8132178683
 C          3.7061337604        0.9858184491        2.0791097990
 C          2.6938721202        0.9595878889        1.1311652792
 H          1.7632306300        0.4475824193        1.3231629697
 H          3.5530001503        0.4763488298        3.0169830093
 H          5.6743474907        1.6659658187        2.5548859882
 H          5.9963572307        2.8270918672        0.3986836974
 H          4.1674864904        2.7723511367       -1.3052045623
 H          2.9297218192        0.1362447463       -2.5879066403
 H          4.0993825689       -1.4528177332       -1.2148520595
 H          3.9051103285       -3.2971399721        0.4156587718
 H          1.7113722185       -3.8858293406        1.3645470625
 H         -0.5551464512       -3.1803878095        1.7816536224
 C         -1.4378751518       -3.8905934704       -0.0185937869
 C         -1.2030308721       -4.1211718214       -1.4779784168
 C         -0.7001477623       -5.1141584510       -0.4756394263
 H         -1.2002484026       -6.0677283207       -0.4004318055
 H          0.3651504877       -5.1572846312       -0.3097203964
 H         -2.0557949723       -4.3735274815       -2.0890864565
 H         -0.4825744620       -3.4914973120       -1.9785039674
 H         -2.4523954718       -4.0399585898        0.3313476433
