  62
        -98.94066903
 C          1.9541505420        0.8499161614        0.7151453782
 C          1.8662241708        0.1850145220       -0.5336529774
 C          2.0738019982       -1.2685084303       -0.4985344591
 C          2.2452506464       -1.8959309254        0.6774771062
 C          2.4283837965       -3.3763392727        0.8766379283
 C          3.8717026408       -3.8614861462        0.6815358751
 C          4.3622110961       -3.8820566306       -0.7667626081
 H          5.2985429092       -4.4432581937       -0.7791324264
 H          3.6462714314       -4.4270755934       -1.3825679262
 C          4.6111645845       -2.4931842300       -1.3711973546
 H          5.5708354205       -2.4891786137       -1.8925993548
 H          4.6787440188       -1.7542062354       -0.5694834753
 C          3.5491627375       -2.0386321987       -2.3725365992
 H          3.8048781446       -1.0312634744       -2.7105102029
 H          3.5590767073       -2.6985433930       -3.2426794045
 C          2.1239523700       -2.0004003285       -1.8051883857
 H          1.4820836153       -1.4615331643       -2.5065677437
 H          1.7351088307       -3.0117975598       -1.6874073680
 H          4.5338227061       -3.2338146845        1.2824491511
 H          3.9283903502       -4.8782819212        1.0768276820
 H          1.7632676154       -3.9178869986        0.2030182577
 H          2.1273106884       -3.5892527847        1.9048959983
 O          2.2511957638       -1.2315506047        1.8652619290
 C          2.1087252631        0.1457472182        1.9104612858
 O          2.1329037653        0.6217501470        3.0652171799
 O          1.6346507004        0.7618805399       -1.6273371438
 C          1.7219862742        2.3476601165        0.8361078087
 C          0.4825503273        2.7070743339        0.0530192051
 C          0.4285565778        3.6932805031       -0.9219306548
 C         -0.7452637885        3.9172520827       -1.6213030901
 C         -1.8747114834        3.1588735431       -1.3773541758
 C         -1.8331185581        2.1774744466       -0.3922892108
 C         -0.6690612837        1.9792905255        0.3281134362
 H         -0.6439652661        1.2114855474        1.0897427636
 N         -2.9652447064        1.3944299599       -0.1016709945
 S         -2.7241312427       -0.1993600744        0.4015804226
 O         -2.4581303745       -0.1995904104        1.8199583620
 O         -1.7495682632       -0.8615011313       -0.4355305337
 C         -4.3509975223       -0.8680971368        0.1031884144
 C         -4.5928382930       -1.5685694305       -1.0633626402
 C         -5.8686610109       -2.0557978319       -1.3008814681
 C         -6.8762877817       -1.8322015813       -0.3746980864
 C         -6.6183319876       -1.1278574704        0.7920661802
 C         -5.3446412866       -0.6393082662        1.0362681987
 H         -5.0928861464       -0.0953894658        1.9317034717
 H         -7.4030988038       -0.9584732423        1.5113986398
 H         -7.8681020694       -2.2121005480       -0.5620723429
 H         -6.0707352966       -2.6068975498       -2.2051632646
 H         -3.7754432073       -1.7238375436       -1.7493916990
 H         -3.6734577071        1.4506768358       -0.8212549739
 H         -2.7793186019        3.3171704243       -1.9446148557
 H         -0.7732432625        4.6804225752       -2.3843596794
 H          1.3110390343        4.2651535243       -1.1571645254
 H          1.5005729536        2.5121239687        1.9045775118
 C          2.9309221451        3.2093003369        0.5052569765
 C          4.3219016964        2.6640386148        0.6286210903
 C          3.7616653709        2.9886514449       -0.7217318393
 H          4.1485486847        3.8543516303       -1.2393378298
 H          3.4785279346        2.1777659806       -1.3731821164
 H          5.0889331725        3.3037480912        1.0388191847
 H          4.4263726600        1.6243323823        0.9043572812
 H          2.7919095359        4.2385909870        0.8217008142
