  62
        -98.93803295
 C         -2.4716994549       -1.2097087534        0.2725551963
 C         -2.7187005207       -0.4040871893       -0.8619956321
 C         -3.6375871964        0.7385304560       -0.6780781756
 C         -4.1679021362        0.9551841301        0.5400233376
 C         -5.0848364117        2.0684228164        0.9725528568
 C         -4.3473087914        3.4044164952        1.1592504611
 C         -3.3478075859        3.7469002270        0.0572873657
 H         -2.8165123582        4.6528170344        0.3612812796
 H         -2.6073362857        2.9479369308       -0.0170154390
 C         -3.9586620802        4.0025185282       -1.3185390147
 H         -4.6696266072        4.8284913375       -1.2460669458
 H         -3.1475058842        4.3192259844       -1.9790044218
 C         -4.6629793080        2.8105441179       -1.9699488059
 H         -4.8250089549        3.0642062817       -3.0215706482
 H         -5.6466741666        2.6514343984       -1.5365096567
 C         -3.8635776956        1.5112754119       -1.9552633806
 H         -4.3375396042        0.8034053757       -2.6458971754
 H         -2.8676773459        1.6966535905       -2.3735996281
 H         -5.0898809509        4.1998674817        1.2405783516
 H         -3.7986230257        3.3579442465        2.1034409994
 H         -5.9034291108        2.1726667779        0.2668395860
 H         -5.5096704562        1.7692146807        1.9333234011
 O         -3.8803475550        0.1613747933        1.6130456994
 C         -3.0369771774       -0.9273710982        1.5140189507
 O         -2.8650375396       -1.5505776719        2.5829960038
 H         -0.1815607762       -0.3046596216        1.0590483465
 C          0.3931964365       -0.8523260823        0.3205600735
 C         -0.1674668430       -1.9779516437       -0.2709361970
 C          0.5893372383       -2.6800673160       -1.1997173965
 C          1.8623100585       -2.2518549214       -1.5355351626
 C          2.4083792296       -1.1219906788       -0.9556850969
 C          1.6648538535       -0.4176840669       -0.0175866280
 N          2.2147432910        0.7362801183        0.5761078960
 S          3.6605668656        0.5368582668        1.4141209877
 O          3.7732018568       -0.7977610772        1.9568328149
 O          3.7002882017        1.6240634342        2.3679717504
 C          4.9154667323        0.8004141003        0.1793453690
 C          4.9266381285        2.0071306633       -0.4926075181
 C          5.9037924561        2.2302333142       -1.4495007242
 C          6.8494146277        1.2504306725       -1.7138757322
 C          6.8263053671        0.0456579046       -1.0280701729
 C          5.8504785682       -0.1848383021       -0.0707520044
 H          5.7885827953       -1.1075907580        0.4835490140
 H          7.5623408184       -0.7145138147       -1.2347702476
 H          7.6091337919        1.4272252437       -2.4587691786
 H          5.9248585674        3.1656640519       -1.9850679264
 H          4.1767797697        2.7427858176       -0.2538145567
 H          1.5553907963        1.2385560592        1.1536565773
 H          3.3958329132       -0.7808946999       -1.2205723955
 H          2.4359241791       -2.8051208475       -2.2632429686
 H          0.1811934103       -3.5631526104       -1.6630102142
 C         -1.5479634521       -2.4080818071        0.1650517318
 H         -1.4637972331       -2.8174558343        1.1834338237
 C         -2.1646604737       -3.4608953366       -0.7330145240
 C         -1.8936491124       -4.9149300886       -0.4937769392
 C         -3.2406981524       -4.3413851070       -0.1749561093
 H         -4.0768788337       -4.5993257883       -0.8072503433
 H         -3.5063794048       -4.2000552043        0.8630541935
 H         -1.8080907589       -5.5710327397       -1.3468389582
 H         -1.2469579103       -5.1748108004        0.3308217850
 H         -2.2770219210       -3.1190340813       -1.7553373529
 O         -2.1942479609       -0.6178084739       -1.9858742999
