  62
        -98.94065075
 C          1.6062340507        1.3690632329        0.7154281833
 C          1.6157007695       -0.0062078073        1.0679248295
 C          2.8838353432       -0.7172801083        0.8812886160
 C          3.9614454976       -0.0460670697        0.4371868007
 C          5.3359556520       -0.6202614876        0.2239115996
 C          5.5208849305       -1.3085900394       -1.1354360633
 C          4.8017794372       -2.6494891950       -1.2885153120
 H          5.1895823722       -3.1186239968       -2.1949956526
 H          5.0617438158       -3.2970852380       -0.4506517808
 C          3.2748784226       -2.5382221351       -1.4035970798
 H          2.9252416211       -3.1683618777       -2.2243006971
 H          3.0023558562       -1.5100065888       -1.6527318458
 C          2.5095326409       -2.9618812893       -0.1497151829
 H          1.4448845936       -2.7903177612       -0.3267362293
 H          2.6606768736       -4.0290601614        0.0267104871
 C          2.9021971576       -2.1962486329        1.1203861590
 H          2.1642766447       -2.4152510649        1.8956470233
 H          3.8843231734       -2.5158062009        1.4681661529
 H          5.1887503219       -0.6252367862       -1.9204908260
 H          6.5917806079       -1.4761478316       -1.2725583436
 H          5.5666719082       -1.3240366316        1.0241857037
 H          6.0356921214        0.2161958542        0.2839272430
 O          3.9222892784        1.2785043785        0.1397635273
 C          2.7403509755        2.0116900718        0.2194621137
 O          2.8616554769        3.1890470439       -0.1650577530
 O          0.6066137324       -0.6055585789        1.5231310598
 C          0.2676933663        2.0719635211        0.8529785657
 C         -0.5654366315        1.7869483947       -0.3704440790
 C         -0.0622715865        2.0202041012       -1.6472828163
 C         -0.8258044256        1.7309356460       -2.7625977699
 C         -2.0935411028        1.1912955277       -2.6280170386
 C         -2.6031510128        0.9512365386       -1.3572243501
 C         -1.8384082781        1.2546832984       -0.2380094583
 H         -2.2459301637        1.0671936032        0.7433287569
 N         -3.8875731494        0.4208649299       -1.1955606149
 S         -4.2908997531       -0.5231738084        0.1189558230
 O         -5.4977216907       -1.2037793613       -0.3009998101
 O         -4.4153939703        0.2979040051        1.2975275483
 C         -2.9808734963       -1.7155685319        0.3233630004
 C         -2.5985216794       -2.4698218714       -0.7684381232
 C         -1.6208779420       -3.4363442435       -0.6033260957
 C         -1.0506924710       -3.6369456118        0.6447280589
 C         -1.4435857586       -2.8703844918        1.7290170096
 C         -2.4171639897       -1.8984817819        1.5682464900
 H         -2.7432785814       -1.2763735582        2.3863185983
 H         -0.9903241219       -3.0165655715        2.6956862063
 H         -0.2929269653       -4.3940231386        0.7729797009
 H         -1.3054753356       -4.0306299699       -1.4463130279
 H         -3.0678961258       -2.3014345241       -1.7242159768
 H         -4.3477767473        0.1242038493       -2.0426406745
 H         -2.6862871205        0.9602005695       -3.4997214543
 H         -0.4280047867        1.9200516569       -3.7482807005
 H          0.9314230852        2.4316495823       -1.7505450952
 H         -0.2282645709        1.5765046331        1.7037348273
 C          0.3624523377        3.5518884013        1.1874176614
 C         -0.0359197863        4.6412003924        0.2419538075
 C         -0.8940071464        4.3351970186        1.4305083782
 H         -0.9175253675        5.0372360407        2.2502321177
 H         -1.8335463516        3.8317093466        1.2538550016
 H          0.5557714857        5.5437815759        0.2448438496
 H         -0.4022232931        4.3654450429       -0.7342568208
 H          1.2032563015        3.7687980279        1.8376136218
