  62
        -98.94465660
 C         -0.8008131313       -1.3448752020        0.3215648289
 C         -1.2181228364       -0.5637055554       -0.7843827007
 C         -2.2655386589        0.4330296355       -0.5036860970
 C         -2.7159296546        0.5925395157        0.7528589364
 C         -3.8335629112        1.5095262973        1.1576427209
 C         -5.1861803473        0.7847411526        1.1056255564
 C         -5.4350820125        0.0327156440       -0.2019451250
 H         -4.7222304591       -0.7911283433       -0.2818890403
 H         -6.4314690600       -0.4098645244       -0.1381307300
 C         -5.3432266006        0.9030232537       -1.4632887848
 H         -5.4297453438        1.9566033055       -1.1951339106
 H         -6.1860448279        0.6651307267       -2.1156947699
 C         -4.0710370745        0.6933055706       -2.2872331687
 H         -3.9339299543       -0.3727271206       -2.4858589360
 H         -4.2037328324        1.1902880237       -3.2521709271
 C         -2.7778348376        1.2364250721       -1.6658300014
 H         -1.9959201048        1.1914440941       -2.4307532629
 H         -2.9183297739        2.2820971721       -1.3829947664
 H         -5.9780353135        1.5199009886        1.2600867263
 H         -5.2252325664        0.0648543335        1.9261766143
 H         -3.6530517627        1.8447514524        2.1801401626
 H         -3.8523546076        2.3731859207        0.4954271383
 O         -2.2304455694       -0.1144383523        1.8032707539
 C         -1.2853626071       -1.1055736529        1.6114300107
 O         -0.9584357295       -1.7063207521        2.6541699003
 H          1.4353529003       -0.4040511936       -1.0329782822
 C          2.0913173519       -0.9378951453       -0.3627223429
 C          1.6222775300       -2.0312981941        0.3512331183
 C          2.5010254704       -2.7162761565        1.1834004824
 C          3.8208641992       -2.3202104957        1.2953309455
 C          4.2823768577       -1.2198284048        0.5966608580
 C          3.4099255369       -0.5234099645       -0.2326476877
 N          3.8511358854        0.6083735539       -0.9314342982
 S          2.8192581722        1.8891472153       -1.2065272003
 O          2.0106324919        1.6501004099       -2.3733431150
 O          3.7023029152        3.0358650976       -1.2920090152
 C          1.7906978187        2.0587183619        0.2433838758
 C          0.4813310546        2.4548284270        0.0687129357
 C         -0.3097462561        2.6759937534        1.1846104351
 C          0.2124262326        2.4743922987        2.4516737716
 C          1.5284942473        2.0702464315        2.6116538963
 C          2.3318095508        1.8737423227        1.5003860777
 H          3.3620294651        1.5761469692        1.6064944349
 H          1.9313730186        1.9109787242        3.5988201670
 H         -0.4100667567        2.6318307270        3.3183052554
 H         -1.3299498361        3.0002505769        1.0604389042
 H          0.1039057476        2.5727420424       -0.9347236733
 H          4.7834569356        0.9203238127       -0.7018448502
 H          5.3084657160       -0.8981685297        0.6890567767
 H          4.4934226135       -2.8635409310        1.9409977766
 H          2.1389321394       -3.5591358519        1.7525527474
 C          0.1905440713       -2.4919392625        0.2196384083
 H         -0.0237801457       -3.1430419343        1.0789865024
 C          0.0357520847       -3.3139215664       -1.0466764178
 C          0.4443789622       -4.7548073710       -1.0401455911
 C         -1.0073528625       -4.3872340919       -1.1036693242
 H         -1.5422350190       -4.5358602889       -2.0296590278
 H         -1.6116599627       -4.5431940086       -0.2214764221
 H          0.9115410238       -5.1593995556       -1.9248195946
 H          0.8199565523       -5.1680844114       -0.1165587668
 H          0.2126493940       -2.7432555219       -1.9490988893
 O         -0.7681671541       -0.6792582303       -1.9549138496
