  62
        -98.93365943
 C          2.3402626803        1.5114212513        0.3897523464
 C          2.6842977575        0.6949042761       -0.7142615118
 C          3.4415144062       -0.5300084687       -0.4023023678
 C          3.7466156981       -0.8149084775        0.8755914839
 C          4.4129042942       -2.0724257064        1.3561360148
 C          3.3869820914       -3.2236348551        1.3955124326
 C          3.6655877897       -4.3540262372        0.4040151798
 H          4.4840133783       -4.9676491298        0.7865076497
 H          2.7717150978       -4.9805873947        0.3667521603
 C          4.0307263510       -3.9226339916       -1.0195524042
 H          3.9360183010       -4.8072109495       -1.6528941305
 H          5.0796285471       -3.6244324833       -1.0550645853
 C          3.1804558432       -2.7956945899       -1.6205208412
 H          2.1991604020       -2.7559398744       -1.1442040810
 H          3.0094945917       -3.0247213400       -2.6747135634
 C          3.8347798876       -1.4018854365       -1.5625934672
 H          4.9226376613       -1.5075339556       -1.5897934308
 H          3.5352819900       -0.8392292124       -2.4518248438
 H          3.3572701072       -3.6503663079        2.3993048776
 H          2.3943123629       -2.8075909437        1.2050313349
 H          5.2454998228       -2.3229807358        0.7027248943
 H          4.7985122616       -1.8741066832        2.3563205678
 O          3.3998630362       -0.0070190063        1.9105466960
 C          2.6858326498        1.1583703653        1.6975028838
 O          2.4287297173        1.7972720289        2.7370485508
 H          0.2031336330        1.0664138696       -1.3247145153
 C         -0.4510879973        1.5080256610       -0.5869124545
 C          0.0600519280        2.4475005940        0.2991102619
 C         -0.7947681759        3.0021917417        1.2431151081
 C         -2.1248467397        2.6211410801        1.2983293823
 C         -2.6254512065        1.6750078281        0.4214213609
 C         -1.7769264525        1.1138729039       -0.5237840050
 N         -2.2706223864        0.1145925276       -1.3977280762
 S         -2.5418276907       -1.3619690903       -0.6288695694
 O         -1.6160800648       -1.5633836361        0.4649989995
 O         -2.5214197485       -2.3587826367       -1.6770397939
 C         -4.2008447867       -1.1939018389       -0.0083131323
 C         -5.2234564243       -1.0445771136       -0.9251334583
 C         -6.5206868283       -0.8966525059       -0.4611990176
 C         -6.7713371299       -0.9017881137        0.9031914085
 C         -5.7337359421       -1.0554448352        1.8100935971
 C         -4.4332314092       -1.2028176722        1.3527237768
 H         -3.5931505690       -1.3174823304        2.0190931846
 H         -5.9303257404       -1.0586067016        2.8701783799
 H         -7.7815834830       -0.7851352744        1.2624254711
 H         -7.3302934000       -0.7768531142       -1.1628824083
 H         -4.9824709235       -1.0503650503       -1.9749982084
 H         -1.6487736369       -0.0445644592       -2.1801342173
 H         -3.6579579778        1.3686105941        0.4644658317
 H         -2.7768949320        3.0597411674        2.0379768288
 H         -0.4043552633        3.7194936677        1.9501549930
 C          1.5268118230        2.7917924849        0.2620369470
 H          1.7564738914        3.3695224386        1.1707792702
 C          1.9267424303        3.6436167610       -0.9349530260
 C          1.0184924379        3.9318512183       -2.0894053463
 C          1.3324569853        5.0113030352       -1.1006820564
 H          1.9764547683        5.8232957737       -1.4020104985
 H          0.5520412261        5.2965744502       -0.4112372584
 H          0.0267322976        3.5077029177       -2.0814763781
 H          1.4625228876        3.9786748496       -3.0721286643
 H          2.9805689626        3.5402301374       -1.1709664399
 O          2.3797926068        0.9514838167       -1.9095253728
