  62
        -98.93475901
 C          2.3440095300        1.1314108894       -0.1333383713
 C          1.9741204399       -0.1433073208       -0.6192692909
 C          2.6217928899       -1.3137469806        0.0097773294
 C          3.5149828600       -1.1162656403        0.9960985393
 C          4.3201496301       -2.1434330601        1.7459988295
 C          5.4894698799       -2.7017645304        0.9174751195
 C          5.1539645697       -3.0251363909       -0.5362359603
 H          4.7691428197       -2.1272479210       -1.0231208706
 H          6.0862869297       -3.2932539511       -1.0400452004
 C          4.1681618397       -4.1734250709       -0.7366769499
 H          4.0791207495       -4.3412457712       -1.8129718598
 H          4.5808349397       -5.0816538008       -0.2918262996
 C          2.7636004198       -3.9535594306       -0.1720066998
 H          2.7503529899       -4.0811455903        0.9070771403
 H          2.1205180597       -4.7370573407       -0.5837502894
 C          2.1221871998       -2.6229730007       -0.5534315001
 H          1.0573063498       -2.6638678706       -0.2910610799
 H          2.1490544096       -2.5122934711       -1.6433546801
 H          5.8674296200       -3.5965710503        1.4146560897
 H          6.2865323900       -1.9544165304        0.9155089192
 H          4.7264683002       -1.6405099898        2.6263657293
 H          3.6714700801       -2.9423031000        2.0933999598
 O          3.8483768801        0.1325914998        1.4299518188
 C          3.2729983801        1.2683223197        0.9025122985
 O          3.6679754902        2.3319265798        1.4216653882
 O          1.1435128597       -0.3355009510       -1.5488663907
 C          1.7354893200        2.4306772193       -0.6438349616
 C          0.3593396700        2.5960822395       -0.0443015015
 C          0.1355049902        3.5070390498        0.9816927182
 C         -1.1087798797        3.6028514001        1.5804316483
 C         -2.1521673398        2.7884235400        1.1766034487
 C         -1.9347559300        1.8717643097        0.1568644690
 C         -0.6937218900        1.7919703694       -0.4560408811
 H         -0.5261532602        1.0587581192       -1.2305788809
 N         -2.9815493301        1.0084504496       -0.2503348706
 S         -3.4944118499       -0.0523284700        0.9654157998
 O         -4.2537041698        0.7014203303        1.9309515297
 O         -2.3689308399       -0.7978385299        1.4894182299
 C         -4.5769235801       -1.1299615003        0.0477658603
 C         -4.0515253802       -2.2696322205       -0.5307056294
 C         -4.8869984603       -3.0935514207       -1.2682036491
 C         -6.2256859304       -2.7630168607       -1.4165084190
 C         -6.7378107702       -1.6146904705       -0.8312034793
 C         -5.9078280901       -0.7868251803       -0.0920114997
 H         -6.2614901500        0.1109706099        0.3870652701
 H         -7.7793792702       -1.3627087005       -0.9480106893
 H         -6.8734471304       -3.4067863108       -1.9902814887
 H         -4.4905757504       -3.9873521708       -1.7226649788
 H         -3.0065602902       -2.4928150505       -0.3820566595
 H         -2.6811178102        0.4508660693       -1.0416401405
 H         -3.1168154397        2.8315101102        1.6553549488
 H         -1.2661656496        4.3136429103        2.3778331181
 H          0.9536920003        4.1240613599        1.3252705279
 H          2.3731853300        3.2308196794       -0.2454393520
 C          1.7247581998        2.5339229088       -2.1556402917
 C          1.5807743398        3.8847067986       -2.7872141221
 C          2.8922283597        3.1624502385       -2.8524518320
 H          3.2097447896        2.7501977182       -3.7984263919
 H          3.7053719098        3.5230487787       -2.2390978422
 H          0.9958213496        3.9714234683       -3.6898199520
 H          1.5043892299        4.7372444388       -2.1293336323
 H          1.2516585897        1.6936793286       -2.6454356913
