  62
        -98.94065248
 C          1.5984601798        1.3637478006        0.7293207536
 C          1.5934643157       -0.0191485896        1.0513748971
 C          2.8589523828       -0.7352823472        0.8667216494
 C          3.9475569972       -0.0618959789        0.4537790293
 C          5.3210683361       -0.6411193782        0.2477697397
 C          5.5219151314       -1.2984351178       -1.1245941874
 C          4.7952082781       -2.6296300980       -1.3203783947
 H          5.1930478551       -3.0799912016       -2.2320219618
 H          5.0378049276       -3.2990104569       -0.4945206599
 C          3.2710406987       -2.5037448727       -1.4552018750
 H          3.0098976837       -1.4677134678       -1.6832715662
 H          2.9291831068       -3.1109986057       -2.2962234523
 C          2.4839113564       -2.9517415660       -0.2234115103
 H          1.4232362156       -2.7684391410       -0.4119212051
 H          2.6249661361       -4.0239480475       -0.0707648803
 C          2.8626363560       -2.2196564816        1.0705850843
 H          2.1109407754       -2.4511248077        1.8288079336
 H          3.8368915402       -2.5551116523        1.4254404250
 H          5.2070947943       -0.5941522186       -1.8982122244
 H          6.5935152077       -1.4711240193       -1.2493333901
 H          6.0258246783        0.1883485941        0.3383018317
 H          5.5343171777       -1.3653778312        1.0344893181
 O          3.9217924265        1.2692691870        0.1857193395
 C          2.7434401373        2.0087667406        0.2627308391
 O          2.8781754914        3.1927441292       -0.0963534516
 O          0.5735494458       -0.6207105815        1.4783442351
 C          0.2601879494        2.0689076247        0.8590807249
 C         -0.5597995093        1.7844760002       -0.3733711931
 C         -0.0422354971        2.0201407767       -1.6440360466
 C         -0.7904624311        1.7268366467       -2.7685329684
 C         -2.0566120484        1.1798221827       -2.6491839749
 C         -2.5805104532        0.9375984451       -1.3846165434
 C         -1.8317615824        1.2466380132       -0.2561263681
 H         -2.2502863526        1.0578075693        0.7203150300
 N         -3.8628933535        0.3985486527       -1.2386700113
 S         -4.2866825557       -0.5265685081        0.0824253631
 O         -5.4774265115       -1.2258546957       -0.3528390605
 O         -4.4465812999        0.3141633794        1.2429375856
 C         -2.9723716898       -1.7034970107        0.3414701855
 C         -2.4652750692       -1.8813556757        1.6112289255
 C         -1.4882189701       -2.8410869503        1.8165921157
 C         -1.0353906486       -3.6009950683        0.7513896709
 C         -1.5497314198       -3.4062760978       -0.5213784641
 C         -2.5308243709       -2.4519774282       -0.7315002030
 H         -2.9552187420       -2.2873851115       -1.7087751228
 H         -1.1874352390       -3.9949517861       -1.3494355032
 H         -0.2724647057       -4.3463072088        0.9133819060
 H         -1.0784514801       -2.9833130743        2.8031848952
 H         -2.8368624779       -1.2632505278        2.4129565980
 H         -4.3088704179        0.0908262970       -2.0893304100
 H         -2.6369824677        0.9442372149       -3.5279841139
 H         -0.3817270610        1.9177266669       -3.7493991397
 H          0.9511436425        2.4355287262       -1.7349477432
 H         -0.2441420419        1.5715985259        1.7038719401
 C          0.3511585617        3.5480477012        1.1967876790
 C         -0.0436413293        4.6379151804        0.2503782588
 C         -0.9084254542        4.3283948166        1.4331702479
 H         -0.9385745985        5.0292343876        2.2536913408
 H         -1.8458108220        3.8231997514        1.2499170170
 H          0.5459286289        5.5418573848        0.2583158330
 H         -0.4037187084        4.3629227050       -0.7284045877
 H          1.1874485567        3.7656033417        1.8523561040
