  62
        -98.93713174
 C         -2.4436137698       -1.4373246512        0.1522113802
 C         -2.5881967901       -0.4621360812       -0.8632944197
 C         -3.5113324905        0.6476534885       -0.5711595296
 C         -4.1451484105        0.6894425982        0.6139711604
 C         -5.0323948308        1.8027641379        1.0926854505
 C         -4.1707857512        2.9944177182        1.5578515805
 C         -4.3275370217        4.2565898581        0.7093977906
 H         -5.2753034618        4.7375556978        0.9602217906
 H         -3.5247578819        4.9409101084        0.9923764506
 C         -4.2945671117        4.0509800482       -0.8081091094
 H         -4.1467072920        5.0348189383       -1.2584618394
 H         -5.2666929015        3.6941460979       -1.1516324594
 C         -3.2103971613        3.1022333886       -1.3359901395
 H         -2.3701687913        3.0494820589       -0.6419276995
 H         -2.8217453115        3.5171006088       -2.2686515995
 C         -3.7048210009        1.6773188585       -1.6501009896
 H         -4.7592606809        1.7118546381       -1.9373060596
 H         -3.1423573808        1.2958518487       -2.5073168096
 H         -4.4210696213        3.2437626680        2.5901094405
 H         -3.1236068811        2.6825218385        1.5566477005
 H         -5.7072197010        2.1059444577        0.2954300505
 H         -5.6224450407        1.4140886876        1.9227910005
 O         -3.9806944201       -0.2629470318        1.5671387103
 C         -3.1340190598       -1.3372683515        1.3649501302
 O         -3.0842014095       -2.1333796015        2.3232488402
 O         -1.9892412001       -0.4923070009       -1.9732288097
 C         -1.5230642894       -2.6444206609        0.0313381401
 C         -0.0959168695       -2.2323090104        0.3036584001
 C          0.5545701007       -2.6416450302        1.4619046901
 C          1.8469021505       -2.2246915898        1.7289239501
 C          2.5130594302       -1.3871718495        0.8519982101
 C          1.8668380901       -0.9635208097       -0.3016011299
 C          0.5784404802       -1.3967439901       -0.5754591899
 H          0.0752655301       -1.0489078802       -1.4654348798
 N          2.5277471097       -0.0894869894       -1.1885283598
 S          3.0523689293        1.3687817607       -0.5346726098
 O          2.2407759792        1.7655751604        0.5942134803
 O          3.1069338189        2.2937577308       -1.6457600597
 C          4.7137464694        1.0128515413       -0.0011565498
 C          5.6133727995        0.5561314116       -0.9446643799
 C          6.9121169096        0.2769942720       -0.5506728199
 C          7.2880203296        0.4608250221        0.7718231001
 C          6.3740210695        0.9232171317        1.7062013401
 C          5.0727002194        1.2035508313        1.3186569002
 H          4.3259425993        1.5594343910        2.0105923102
 H          6.6679957995        1.0658802818        2.7336989701
 H          8.2995006497        0.2427820024        1.0762022400
 H          7.6258255497       -0.0825417077       -1.2742537100
 H          5.2804422595        0.4314974716       -1.9614836199
 H          1.9932805297        0.0871223004       -2.0284206798
 H          3.5167184301       -1.0524596892        1.0581305201
 H          2.3393996107       -2.5515885497        2.6320398000
 H          0.0303360509       -3.2742724304        2.1636361801
 H         -1.8313438991       -3.3292276310        0.8323425901
 C         -1.6568427591       -3.3688241408       -1.2935189099
 C         -1.1993375887       -4.7920275207       -1.3886148200
 C         -2.6627093388       -4.4707638312       -1.4245687599
 H         -3.1936125388       -4.5742130613       -2.3589527399
 H         -3.2595131587       -4.7079951814       -0.5556778799
 H         -0.7223403286       -5.1192898305       -2.2995494200
 H         -0.8037549885       -5.2500367306       -0.4947483700
 H         -1.5071282794       -2.7311986307       -2.1542559799
