  62
        -98.94295924
 C          1.9873578802        0.5283357185        0.0391605107
 C          2.6007027893       -0.7409488410        0.2093773863
 C          3.9640376409       -0.8823421044       -0.3112157483
 C          4.5497714371        0.1577896160       -0.9311629395
 C          5.9263045104        0.1690508449       -1.5383943729
 C          7.0499900448        0.4515653826       -0.5318174281
 C          7.3624859853       -0.6932210181        0.4326717052
 H          8.3037231456       -0.4469340382        0.9281199866
 H          7.5235304404       -1.6108366704       -0.1340077038
 C          6.2889719856       -0.9297265766        1.5042241419
 H          5.6412025469       -0.0526329135        1.5714019113
 H          6.7671657340       -1.0493598283        2.4790666012
 C          5.4217546600       -2.1670495873        1.2712652699
 H          4.6742749835       -2.2171467662        2.0673299005
 H          6.0398391680       -3.0655094199        1.3340379034
 C          4.6818497306       -2.1764009672       -0.0729036150
 H          3.9332750955       -2.9723125478       -0.0473404282
 H          5.3798930049       -2.3792179460       -0.8850361854
 H          6.7917854219        1.3473595542        0.0375453424
 H          7.9533309381        0.6711511921       -1.1054929751
 H          5.9284899740        0.9628824237       -2.2883598549
 H          6.1139295057       -0.7818569344       -2.0378983184
 O          3.9236648711        1.3503767398       -1.0956313936
 C          2.6432016028        1.5765670131       -0.6077135752
 O          2.2320004156        2.7325915939       -0.8248695114
 O          2.0331873989       -1.7126296579        0.7780135895
 C          0.5859873495        0.6870464524        0.6050354783
 C         -0.4660622369        0.5402927841       -0.4685610092
 C         -0.5664275702        1.4453520496       -1.5211663584
 C         -1.5377524383        1.2849417826       -2.4916527796
 C         -2.4391964598        0.2365824300       -2.4222712618
 C         -2.3495456482       -0.6711479544       -1.3747832790
 C         -1.3610157288       -0.5185341421       -0.4111953473
 H         -1.2967049609       -1.2410081711        0.3886913316
 N         -3.2543057888       -1.7457239496       -1.2708206184
 S         -4.1545471935       -1.8924133850        0.1334063840
 O         -3.2883860162       -2.1761563597        1.2477868767
 O         -5.1621541535       -2.8833592181       -0.1705182194
 C         -4.9182791740       -0.2923226987        0.3326193994
 C         -6.1850581234       -0.0899525278       -0.1796132304
 C         -6.7517159288        1.1711296394       -0.0895199419
 C         -6.0400758619        2.2066057387        0.4973330473
 C         -4.7679584459        1.9881951773        1.0034520828
 C         -4.1984828893        0.7272900447        0.9232998147
 H         -3.2129593450        0.5231945761        1.3083033007
 H         -4.2123852467        2.7925012391        1.4581620824
 H         -6.4787820579        3.1897470948        0.5625731670
 H         -7.7422284996        1.3431501289       -0.4788548590
 H         -6.7026733828       -0.9246028305       -0.6241804922
 H         -3.8609331019       -1.8441566196       -2.0730708300
 H         -3.2013718054        0.1164950239       -3.1774527390
 H         -1.5998005006        1.9896660167       -3.3068641378
 H          0.1357268489        2.2624649633       -1.5791520685
 H          0.4652076319       -0.1554525781        1.3003585684
 C          0.3902396894        1.9756159790        1.3799067113
 C         -0.6411729616        2.0214225749        2.4654841592
 C          0.8165203314        2.0365915150        2.8144317225
 H          1.2528854231        2.9524941655        3.1833944987
 H          1.2461702486        1.1440978966        3.2464625447
 H         -1.2095602723        2.9287024060        2.5994830277
 H         -1.1953520729        1.1170032773        2.6707217756
 H          0.5363402361        2.8657505831        0.7826104627
