  62
        -98.94490605
 C         -2.5657110402       -0.1150386499        0.0425084031
 C         -2.3856407383        0.8848122004        1.0264391641
 C         -2.1668750680        2.2483573599        0.5285124139
 C         -2.1588203253        2.4700153655       -0.7985060238
 C         -1.9538055925        3.8098481192       -1.4437762715
 C         -0.4794849939        4.0662129323       -1.7803761961
 C          0.4831214157        3.8037590915       -0.6218338114
 H          0.5203187052        2.7314365009       -0.4151312572
 H          1.4810069570        4.0903492623       -0.9622320593
 C          0.1536408807        4.5632178643        0.6705066937
 H          1.0830878299        4.9599972283        1.0845397481
 H         -0.4932506415        5.4133134321        0.4487259013
 C         -0.4875666404        3.7089099845        1.7663381832
 H         -0.4297700552        4.2623911355        2.7079432251
 H          0.0888817837        2.7872162863        1.8918966826
 C         -1.9589630949        3.3332265225        1.5466983939
 H         -2.5327299259        4.2256480568        1.2869626227
 H         -2.3473487487        2.9365948869        2.4896012542
 H         -0.3804626491        5.1028303661       -2.1094652537
 H         -0.1950358993        3.4150582862       -2.6099340789
 H         -2.5348884516        3.8328600951       -2.3676965107
 H         -2.3236332730        4.5848123108       -0.7748047403
 O         -2.3290968976        1.4832081187       -1.7150777290
 C         -2.5001727207        0.1645189545       -1.3220963536
 O         -2.5958136061       -0.6439137102       -2.2657238423
 O         -2.4184510734        0.6477822392        2.2665001058
 C         -2.7481427105       -1.5553116080        0.4820964833
 C         -1.5875296658       -2.3987045041        0.0105959080
 C         -1.7225504080       -3.7130575537       -0.4173706272
 C         -0.6096444849       -4.4356441497       -0.8136478697
 C          0.6509883209       -3.8693295413       -0.7959083310
 C          0.7960859944       -2.5507319827       -0.3744796120
 C         -0.3167096918       -1.8391784226        0.0388385112
 H         -0.1935924859       -0.8230677105        0.3834797467
 N          2.0540075312       -1.9274377912       -0.4013503369
 S          2.3264199324       -0.4967482897        0.4386436160
 O          2.0529534977       -0.6757169393        1.8486953330
 O          1.6284994810        0.5754652546       -0.2232825014
 C          4.0819188122       -0.3283509772        0.1798564459
 C          4.9563912560       -0.8559646797        1.1112643996
 C          6.3199586169       -0.7525931368        0.8853789704
 C          6.7836499738       -0.1278482786       -0.2626751346
 C          5.8941668318        0.3997563938       -1.1868819683
 C          4.5294903656        0.2994572412       -0.9667548904
 H          3.7994807062        0.6999194743       -1.6511137032
 H          6.2577433376        0.8883230726       -2.0764393127
 H          7.8450564415       -0.0486544925       -0.4367912478
 H          7.0137567729       -1.1580427888        1.6040184265
 H          4.5501021952       -1.3216396803        1.9947796682
 H          2.8316139241       -2.5694022374       -0.3472341417
 H          1.5146231830       -4.4328380611       -1.1134319268
 H         -0.7273943274       -5.4569150782       -1.1429235675
 H         -2.6979927649       -4.1707418293       -0.4421601090
 H         -2.7185532041       -1.5292664681        1.5830242306
 C         -4.0965194510       -2.0874830869        0.0429124442
 C         -4.8245899746       -3.0956870725        0.8794651979
 C         -5.3171557161       -1.6823984087        0.8120556670
 H         -6.2251238879       -1.4743992020        0.2664431397
 H         -5.1693040901       -1.0458824132        1.6725482385
 H         -5.3999038132       -3.8605550865        0.3799813028
 H         -4.3520929277       -3.4220636333        1.7937425563
 H         -4.1832141351       -2.1539484798       -1.0356487957
