  62
        -98.93935187
 C         -1.4944868812       -0.8071846448        0.0030367256
 C         -2.7752425961       -1.3965916339        0.0848420909
 C         -3.8913693100       -0.5007932559        0.4374076601
 C         -3.6453989244        0.8043138259        0.6586745366
 C         -4.5648985573        1.9356753574        1.0700016562
 C         -6.0813345564        1.7793136290        0.9939074427
 C         -6.6423876046        1.6680358502       -0.4233693239
 H         -7.7121504001        1.4594523574       -0.3522462742
 H         -6.5247134505        2.6342715993       -0.9204276496
 C         -5.9881719671        0.6117209321       -1.3104038731
 H         -4.9377166201        0.8640710174       -1.4683526153
 H         -6.4776409022        0.6458944945       -2.2876059670
 C         -6.0808153527       -0.8232019491       -0.7953569161
 H         -5.7209729739       -1.4819103768       -1.5905030626
 H         -7.1242976088       -1.0771948970       -0.5987230508
 C         -5.2551603762       -1.1286550635        0.4664215030
 H         -5.7913471372       -0.8438612133        1.3686689739
 H         -5.0935135793       -2.2098877727        0.5094505539
 H         -6.5097183763        2.6771972530        1.4478057204
 H         -6.4047382470        0.9374229938        1.5989443460
 H         -4.2640669264        2.7972939631        0.4657601892
 H         -4.2940390848        2.1758699851        2.1040716737
 O         -2.3854934188        1.3248434389        0.5780303859
 C         -1.2851345760        0.5487102326        0.2496964157
 O         -0.2087345260        1.1700833880        0.2129643403
 O         -2.9809690878       -2.6248634843       -0.1145829863
 C         -0.3002667549       -1.6663348977       -0.3670442523
 C          0.7648538048       -1.5564668232        0.6947692684
 C          0.4085035970       -1.7231355423        2.0311441875
 C          1.3509155093       -1.6054972501        3.0333373315
 C          2.6680679719       -1.3086057029        2.7277881511
 C          3.0371331164       -1.1560521895        1.3975323210
 C          2.0906886898       -1.2941988178        0.3906076030
 H          2.4103983282       -1.1954092462       -0.6321386713
 N          4.3656659206       -0.8762969657        1.0545064682
 S          4.7433830940       -0.0078242319       -0.3187261661
 O          4.6113082670       -0.8446904039       -1.4855258030
 O          6.0770179885        0.4929694170       -0.0588848222
 C          3.5961836189        1.3543596156       -0.4041973796
 C          2.8729153321        1.5608974056       -1.5599413878
 C          2.0042478208        2.6371329722       -1.6248652700
 C          1.8720391199        3.4826184429       -0.5362302541
 C          2.6070775799        3.2632835171        0.6173718088
 C          3.4800047655        2.1910085664        0.6868711282
 H          4.0681463360        1.9995586536        1.5699629091
 H          2.4955854255        3.9208205698        1.4646945864
 H          1.1853549910        4.3128150857       -0.5850371140
 H          1.4250372915        2.8061801761       -2.5190349122
 H          2.9992285765        0.8739561951       -2.3823531389
 H          4.9769339327       -0.6589401670        1.8269170952
 H          3.4032812213       -1.2018727268        3.5105175406
 H          1.0578190173       -1.7352802721        4.0643400743
 H         -0.6232828158       -1.9397564679        2.2728133143
 H         -0.6715324044       -2.7018692688       -0.3839873730
 C          0.1938521489       -1.2995579143       -1.7507447863
 C          0.9049104429       -2.3127935014       -2.5954224433
 C         -0.4855030226       -1.8820931366       -2.9520832427
 H         -0.6270498271       -1.2558060153       -3.8201212048
 H         -1.2958710342       -2.5745587309       -2.7766228353
 H          1.7271508762       -1.9853607541       -3.2144807554
 H          1.0392009852       -3.3011662695       -2.1822175142
 H          0.5178863194       -0.2658952196       -1.8108639359
