  62
        -98.93553084
 C          1.4347035953        1.1677234930        0.6936880606
 C          2.4131322282        0.9203367944       -0.2979173796
 C          2.9396500244       -0.4593488292       -0.3592692795
 C          2.4572014462       -1.4024109283        0.4646698134
 C          2.7970533204       -2.8708151151        0.5206923619
 C          4.2751113353       -3.2658054290        0.3979025375
 C          5.2678115335       -2.2580668519        0.9959115800
 H          4.7333012524       -1.5193944132        1.5954529438
 H          5.9518745777       -2.7872442627        1.6618251146
 C          6.1057426637       -1.5432466298       -0.0667312005
 H          7.0057707392       -1.1428875652        0.4060450316
 H          6.4253784872       -2.2757772209       -0.8110385136
 C          5.4122198789       -0.3809136839       -0.7762790330
 H          6.0665659459       -0.0400959290       -1.5822057767
 H          5.2924284510        0.4574251730       -0.0847787693
 C          4.0279883068       -0.6955925889       -1.3672810031
 H          3.8409602586        0.0091157699       -2.1823548464
 H          3.9880465149       -1.7049767400       -1.7702152497
 H          4.3861439588       -4.2286891051        0.8995606339
 H          4.5220542683       -3.4287522105       -0.6502845231
 H          2.4044620167       -3.2159632129        1.4805178177
 H          2.2195024570       -3.3738699583       -0.2612023703
 O          1.5029889309       -1.1257559672        1.3964541447
 C          0.9647004665        0.1388692902        1.5138534132
 O          0.0793274755        0.2375273779        2.3895781449
 H         -0.2791056497        1.0352869421       -1.1593496568
 C         -1.0628780423        1.5126488703       -0.5897250656
 C         -0.7439990608        2.3067891039        0.5019295754
 C         -1.7779450952        2.8965584587        1.2194520172
 C         -3.0966390415        2.6934431051        0.8522905527
 C         -3.4106916742        1.8650127766       -0.2103670545
 C         -2.3836334916        1.2610487523       -0.9248533565
 N         -2.6418836949        0.3452508071       -1.9691464190
 S         -2.2075006213       -1.2419708744       -1.6290217998
 O         -0.7973204722       -1.3184493904       -1.3509034843
 O         -2.6844195053       -2.0140954976       -2.7564468137
 C         -3.1706762545       -1.6451856133       -0.1822030610
 C         -4.3981732036       -2.2556530045       -0.3590575285
 C         -5.1935142843       -2.5000286837        0.7482325517
 C         -4.7552136098       -2.1196531599        2.0081058023
 C         -3.5230195703       -1.5053827709        2.1678694522
 C         -2.7186284371       -1.2619670074        1.0646110930
 H         -1.7546658293       -0.7886549828        1.1712819759
 H         -3.1719724878       -1.2055389833        3.1423118433
 H         -5.3753714592       -2.3035017456        2.8712032961
 H         -6.1507688237       -2.9805882147        0.6258826299
 H         -4.6945418645       -2.5356918362       -1.3571942625
 H         -3.6012934378        0.3580841947       -2.2899686769
 H         -4.4393818673        1.6749666375       -0.4772970819
 H         -3.8890741306        3.1610717194        1.4159733271
 H         -1.5441382789        3.4990052490        2.0848125934
 C          0.7010072297        2.4876217403        0.8994549656
 H          0.7130370430        2.6812742963        1.9860674394
 C          1.3424569405        3.6861750808        0.2202351107
 C          0.8790205418        4.2055075639       -1.1039622212
 C          0.6208647165        4.9988583053        0.1399877234
 H          1.1884750462        5.9026949668        0.3011623344
 H         -0.3953490221        5.0426014497        0.5000587745
 H          1.6307018065        4.5446916971       -1.7998533011
 H          0.0442257530        3.7095774331       -1.5762390012
 H          2.4094985853        3.7316505608        0.4039033038
 O          2.8450244554        1.7771783952       -1.1110520785
