  62
        -98.94549223
 C         -2.6513374815       -1.0360627668        0.2568593623
 C         -2.4942504803       -0.2771189386       -0.9287015220
 C         -3.0713099166        1.0748252505       -0.9033173796
 C         -3.7112962578        1.4995056931        0.2012657854
 C         -4.2936548745        2.8707762557        0.3827258006
 C         -3.2744497866        3.8247531785        1.0213976096
 C         -1.9015194029        3.8051014558        0.3479997335
 H         -1.4353303190        2.8279953576        0.5007322388
 H         -1.2736395122        4.5366764479        0.8620062568
 C         -1.9257430982        4.1188967956       -1.1543788971
 H         -1.1168306796        4.8179799070       -1.3765895262
 H         -2.8637798962        4.6110166513       -1.4150617473
 C         -1.7210139880        2.9025380525       -2.0597790256
 H         -0.8279232942        2.3556472664       -1.7418981357
 H         -1.5348750966        3.2637847313       -3.0749181809
 C         -2.8981625021        1.9208062400       -2.1326024665
 H         -2.6964961382        1.2227575352       -2.9502673767
 H         -3.8167190925        2.4651533564       -2.3614043981
 H         -3.1448047062        3.5436817690        2.0691895709
 H         -3.6804779896        4.8372610068        0.9890412181
 H         -4.6111746628        3.2556977910       -0.5841078581
 H         -5.1631729920        2.7918570791        1.0373874516
 O         -3.8557934982        0.7349646040        1.3144927163
 C         -3.3065626602       -0.5361163452        1.3806357598
 O         -3.4635559724       -1.1084997854        2.4791151776
 H         -0.4079914723       -0.7147263214        1.5600151864
 C          0.1421164071       -1.3323092298        0.8585102007
 C         -0.5418207906       -2.3024830750        0.1353066161
 C          0.1751292796       -3.0882565058       -0.7561404736
 C          1.5338022026       -2.8860196440       -0.9313272626
 C          2.2050388104       -1.9062696265       -0.2233758814
 C          1.4992198233       -1.1230557414        0.6808992177
 N          2.1757500593       -0.1189553526        1.4070421973
 S          2.8373203835        1.1245621017        0.4817285895
 O          2.9343494484        2.2552117421        1.3801798541
 O          2.0899757151        1.3345886636       -0.7365754275
 C          4.4739101826        0.5317205674        0.1112050854
 C          5.3176813610        0.2571122111        1.1698333803
 C          6.5933052590       -0.2136771885        0.9032731038
 C          7.0012759185       -0.3987038294       -0.4095794776
 C          6.1432063456       -0.1145448242       -1.4610120736
 C          4.8649890788        0.3556914056       -1.2013372338
 H          4.1596477775        0.5824805071       -1.9849151108
 H          6.4622307900       -0.2588533294       -2.4807228407
 H          7.9940672915       -0.7669250003       -0.6145935754
 H          7.2634974102       -0.4357335627        1.7179515064
 H          4.9603739443        0.4185557789        2.1731181185
 H          1.6082809566        0.2823618079        2.1410619597
 H          3.2607850851       -1.7410863468       -0.3641258659
 H          2.0767199714       -3.4980820189       -1.6351844820
 H         -0.3322745290       -3.8491088717       -1.3258856642
 C         -2.0314472460       -2.4196052335        0.3528954390
 H         -2.2025154561       -2.7601189152        1.3846982258
 C         -2.7153680567       -3.3781806382       -0.5981262350
 C         -2.7517313484       -4.8444268629       -0.2914488240
 C         -3.9991353870       -4.0227435419       -0.1729096283
 H         -4.7782150700       -4.1541615845       -0.9086195596
 H         -4.3680024158       -3.7868873678        0.8149634852
 H         -2.2765111785       -5.1764535168        0.6191519245
 H         -2.6778778494       -5.5446342895       -1.1096585980
 H         -2.6289034229       -3.0696301408       -1.6333844629
 O         -1.9032814720       -0.7038948991       -1.9539482210
