  62
        -98.94249110
 C          1.1807566778        1.6818982547        0.2129975575
 C          1.5731379996        0.6899880201        1.1392691807
 C          2.7911612542       -0.0808204359        0.8281862390
 C          3.4551008570        0.1946668146       -0.3096534445
 C          4.6953565223       -0.4622369048       -0.8564471709
 C          4.4141607565       -1.8375547837       -1.4780302832
 C          3.5428349752       -2.7586434618       -0.6284770426
 H          2.5639881399       -2.2983393668       -0.4756764966
 H          3.3704420080       -3.6732907396       -1.2029655151
 C          4.1430247224       -3.1601787597        0.7176177715
 H          3.4791306667       -3.9137147334        1.1493139790
 H          5.1148040747       -3.6302971681        0.5499572837
 C          4.3115466846       -2.0367685799        1.7447780052
 H          5.2041974809       -1.4484519647        1.5486811085
 H          4.4591171482       -2.5091375329        2.7203101929
 C          3.1007029997       -1.1199653892        1.8781278265
 H          2.1967537645       -1.7342218208        1.9717538517
 H          3.1769363426       -0.5692124651        2.8233702582
 H          3.9027371237       -1.6826237620       -2.4315078995
 H          5.3700241374       -2.3243436455       -1.6819057765
 H          5.0787979984        0.1990805957       -1.6369630643
 H          5.4542319805       -0.5383886883       -0.0834420169
 O          3.0337704132        1.1558102208       -1.1817223360
 C          1.8810481810        1.8906916922       -0.9735983069
 O          1.6016138833        2.6826298665       -1.8944259026
 H         -0.4730966306       -0.0181971266       -0.4791047534
 C         -1.2100353249        0.6598706273       -0.8782629077
 C         -1.1616696662        2.0032270270       -0.5344046978
 C         -2.1045541098        2.8597218396       -1.0890197574
 C         -3.0553823663        2.3732822555       -1.9704557725
 C         -3.1049816064        1.0305264777       -2.3001064042
 C         -2.1680361543        0.1651862364       -1.7467625929
 N         -2.1640254309       -1.2049483191       -2.0465062961
 S         -1.7374195911       -2.3105055473       -0.8646737200
 O         -0.3172337242       -2.2755160956       -0.6231791789
 O         -2.2607478729       -3.5680394297       -1.3560023906
 C         -2.6608553407       -1.8046895813        0.5757475029
 C         -4.0261262881       -2.0209770633        0.5450458405
 C         -4.8002420323       -1.6014775132        1.6132633672
 C         -4.1993761800       -0.9683586128        2.6913122962
 C         -2.8294325708       -0.7628780883        2.7093367855
 C         -2.0474736555       -1.1830979037        1.6435419457
 H         -0.9802401872       -1.0234347078        1.6431580677
 H         -2.3527889292       -0.2720874060        3.5430159790
 H         -4.8004567420       -0.6353056663        3.5226445274
 H         -5.8656444296       -1.7656308829        1.6022139359
 H         -4.4518720401       -2.5282040179       -0.3055602098
 H         -2.9427257907       -1.5263788931       -2.6018361995
 H         -3.8503256969        0.6558987859       -2.9846138135
 H         -3.7758989100        3.0508272769       -2.4026884321
 H         -2.0897297333        3.9077853378       -0.8385511754
 C         -0.1091173417        2.4420220068        0.4567018225
 H         -0.4470224548        2.1248965565        1.4558226704
 C          0.1215344266        3.9377381044        0.4736691661
 C         -0.7255568675        4.8230332423        1.3370685473
 C          0.7038606167        4.5650546708        1.7039430990
 H          1.4228076774        5.3615870166        1.5851229088
 H          0.9087095165        3.9150575154        2.5422522408
 H         -0.9884406415        5.8029959738        0.9682270149
 H         -1.4923964781        4.3542672101        1.9350313215
 H          0.4523390114        4.3186020660       -0.4855291174
 O          0.9222894648        0.4428035781        2.1923522584
