  62
        -98.94208793
 C         -0.5996518933       -1.4453817763        0.0517965660
 C         -1.3917496757       -0.8473631737        1.0557818608
 C         -2.4321973253        0.0990125580        0.6090951254
 C         -2.5365955077        0.3715401911       -0.7052667136
 C         -3.5720929699        1.2124939567       -1.4032006856
 C         -4.9286676439        0.4969452552       -1.5140416751
 C         -5.3956945268       -0.1985953233       -0.2380698297
 H         -6.3145737245       -0.7420439252       -0.4736700038
 H         -4.6510842869       -0.9386864413        0.0608446789
 C         -5.6914068517        0.7278951028        0.9392952634
 H         -6.1051601269        0.1104464278        1.7407791946
 H         -6.4592626304        1.4471378713        0.6458837527
 C         -4.4943990516        1.4968444870        1.5037297325
 H         -4.2485557961        2.3506100289        0.8781121960
 H         -4.7955524328        1.9005341652        2.4749561279
 C         -3.2528178325        0.6456753487        1.7524681296
 H         -2.5510279223        1.2191332614        2.3711442272
 H         -3.5302339043       -0.2189569616        2.3664118202
 H         -5.6776823801        1.2259126999       -1.8278648044
 H         -4.8484171353       -0.2625920425       -2.2954341400
 H         -3.1960501210        1.3974455365       -2.4111833960
 H         -3.6850325426        2.1693970350       -0.9044046227
 O         -1.6933846779       -0.1696717234       -1.6299483154
 C         -0.7224483704       -1.0921217226       -1.2911919554
 O         -0.0498484506       -1.5134499782       -2.2509238078
 O         -1.2579004589       -1.1085230419        2.2838044140
 C          0.4172876803       -2.5009538201        0.4394911371
 C          1.8005535361       -2.1282487335       -0.0313090826
 C          2.6879207240       -3.0455271259       -0.5797214472
 C          3.9527745694       -2.6450882449       -0.9737555948
 C          4.3601947199       -1.3330823814       -0.8243293690
 C          3.4805551928       -0.4071666553       -0.2722674161
 C          2.2153939085       -0.8112672776        0.1206202558
 H          1.5379855326       -0.0935021545        0.5601221660
 N          3.8530837006        0.9338646266       -0.1433818000
 S          3.0713394014        2.0084539611        0.8515522888
 O          3.9321314183        3.1729772886        0.8514377150
 O          2.7870521946        1.4439287501        2.1505938167
 C          1.5649953055        2.4169396080       -0.0025249156
 C          1.6089932246        2.6200945395       -1.3670908561
 C          0.4550602179        3.0186061938       -2.0214820474
 C         -0.7131793060        3.2184370389       -1.3032272166
 C         -0.7433417789        3.0030358033        0.0654109685
 C          0.4053858585        2.5958974995        0.7240290622
 H          0.4214434605        2.4048460689        1.7861304974
 H         -1.6523955945        3.1513307882        0.6255981766
 H         -1.6053139041        3.5432940759       -1.8142340739
 H          0.4704209901        3.1746335153       -3.0881544008
 H          2.5354587121        2.4629646676       -1.8940695811
 H          4.8170915811        1.1606437524       -0.3295895733
 H          5.3457283352       -1.0213736080       -1.1340504108
 H          4.6319265146       -3.3664908066       -1.4021880318
 H          2.3894775164       -4.0736400320       -0.7020019440
 H          0.4263021597       -2.5106638009        1.5405674288
 C         -0.0412006247       -3.8583738465       -0.0557935179
 C          0.2912074575       -5.1021606270        0.7115296990
 C         -1.1130333161       -4.5797620674        0.7030955995
 H         -1.8644198945       -5.1212738083        0.1481643420
 H         -1.4888043751       -4.1050305338        1.5979342273
 H          0.5022702680       -6.0070357671        0.1617003691
 H          0.8660075151       -4.9916524605        1.6187180506
 H         -0.0706025745       -3.9147480833       -1.1385151689
