  62
        -98.93408290
 C         -2.5458763187       -1.2095260590        0.2865648661
 C         -2.5412321035       -0.3829437909       -0.8621579770
 C         -3.4701312910        0.7654144743       -0.8444447213
 C         -4.2331376370        0.9787833699        0.2404901712
 C         -5.2004156922        2.1057447186        0.4765174332
 C         -4.5177274801        3.2613614922        1.2276799445
 C         -3.8034217246        4.2768845049        0.3364043468
 H         -4.5480697533        4.8686155068       -0.2000462209
 H         -3.2560672253        4.9570846201        0.9931792305
 C         -2.8263412377        3.6825471938       -0.6815650494
 H         -2.1324458987        4.4712478346       -0.9786735053
 H         -2.2353917639        2.8950468821       -0.2096720630
 C         -3.5220177441        3.1336895604       -1.9362206345
 H         -4.5560030356        3.4778806781       -1.9490081731
 H         -3.0456883321        3.5518566714       -2.8252986665
 C         -3.4833547170        1.6063840469       -2.0918682705
 H         -2.5725076086        1.3186108807       -2.6265628642
 H         -4.3255302958        1.2902671279       -2.7165432728
 H         -5.2717138805        3.7943636486        1.8105271637
 H         -3.8065606051        2.8267941446        1.9353261770
 H         -5.9969637486        1.7046342381        1.1068324985
 H         -5.6323465033        2.4455867813       -0.4599774894
 O         -4.1741804898        0.1820048584        1.3444157186
 C         -3.3299272951       -0.9109845072        1.4026515871
 O         -3.3590999903       -1.5245097719        2.4890979556
 O         -1.8008746269       -0.5769928366       -1.8597390905
 C         -1.6336989476       -2.4185370360        0.4011894553
 C         -0.2394208638       -2.0601746374       -0.0541795405
 C          0.4492895683       -2.7387643827       -1.0499343347
 C          1.7327424523       -2.3550639269       -1.3988664654
 C          2.3546548504       -1.2930916664       -0.7695687463
 C          1.6768196330       -0.6092069597        0.2314883990
 C          0.3963603799       -1.0026651828        0.5861700347
 H         -0.1320630313       -0.4696747228        1.3689471961
 N          2.2945758086        0.4835816309        0.8664052469
 S          3.8356437922        0.2632826900        1.4948770911
 O          4.0544518205       -1.1093812840        1.8891920629
 O          3.9646614376        1.2586946814        2.5372463504
 C          4.9169037592        0.6937199163        0.1478439557
 C          4.7553762270        1.9303901574       -0.4455977610
 C          5.5967844388        2.2874104533       -1.4869978817
 C          6.5820140098        1.4084720879       -1.9122501546
 C          6.7333091679        0.1719233014       -1.3037438776
 C          5.8939825422       -0.1920720052       -0.2621040842
 H          5.9700444399       -1.1450493421        0.2367824335
 H          7.4998199680       -0.5096114422       -1.6359770452
 H          7.2357410006        1.6894147882       -2.7228091762
 H          5.4815355038        3.2478946365       -1.9630075362
 H          3.9795747163        2.5844619477       -0.0837385574
 H          1.7020579985        0.9514368948        1.5368029391
 H          3.3506994876       -0.9872068857       -1.0452501809
 H          2.2536542501       -2.8874128866       -2.1800574138
 H         -0.0255938574       -3.5544223674       -1.5694499715
 H         -1.5821816686       -2.6313172199        1.4827060978
 C         -2.1808302139       -3.6764445097       -0.2572413951
 C         -3.6565655857       -3.8841977440       -0.4189007480
 C         -2.7943218095       -3.6654748209       -1.6238279224
 H         -2.6060367188       -4.5060601779       -2.2756523778
 H         -2.8526317671       -2.7188011867       -2.1364084131
 H         -4.0566671007       -4.8711626229       -0.2409694414
 H         -4.3126607877       -3.0853332387       -0.1042138667
 H         -1.6023990492       -4.5551758233        0.0115079391
