  62
        -98.93201177
 C          1.6556120095        0.7827612120       -1.0910005877
 C          1.9298163680        0.0619489698        0.0946707147
 C          3.3527766122       -0.2234657498        0.3788232995
 C          4.2942920525        0.2010633272       -0.4815794581
 C          5.7905909016        0.0277267449       -0.4117834793
 C          6.3056023178       -1.3595429514        0.0014419592
 C          6.9353239273       -1.3837133024        1.3952251645
 H          7.6322865624       -2.2230410386        1.4493763875
 H          7.5168312184       -0.4691589647        1.5295703190
 C          5.9471291704       -1.5284787761        2.5512807412
 H          5.5503985835       -2.5459573810        2.5619363250
 H          6.5034741201       -1.3873593576        3.4809820544
 C          4.7691948927       -0.5520881320        2.5315657999
 H          4.3893051013       -0.4672494217        3.5519666932
 H          5.1016578464        0.4417471418        2.2338419868
 C          3.6064011477       -1.0077435758        1.6374170490
 H          2.6669307429       -0.9413235410        2.1951481905
 H          3.7276143767       -2.0633997703        1.3776810179
 H          5.4996053852       -2.0887511374       -0.0632464230
 H          7.0698188480       -1.6583500718       -0.7179503817
 H          6.1969131504        0.7891038330        0.2587993437
 H          6.1502315881        0.2738800671       -1.4135822742
 O          3.9838354735        0.9216025139       -1.5984056484
 C          2.6792917847        1.2434539190       -1.9209536038
 O          2.5614209310        1.9355409086       -2.9519783364
 O          1.0414161826       -0.3329123367        0.8926961238
 C          0.2381116744        1.1547600856       -1.4898071571
 C         -0.5198106780        1.6742448503       -0.2931678401
 C         -0.0193142963        2.7859184639        0.3809016508
 C         -0.6737328835        3.2981024473        1.4832656580
 C         -1.8558039605        2.7280036430        1.9236414170
 C         -2.3665095646        1.6233144548        1.2553069308
 C         -1.6961318354        1.0994370859        0.1584538021
 H         -2.0973508783        0.2267518982       -0.3279498934
 N         -3.5539804696        1.0103246764        1.6807754936
 S         -4.6534063861        0.4588106339        0.5497454653
 O         -4.6582493872        1.2848155471       -0.6357999843
 O         -5.9076885318        0.3783678508        1.2689403978
 C         -4.1221031816       -1.1913656262        0.1457039661
 C         -3.6758624321       -2.0187254282        1.1567707228
 C         -3.3068928005       -3.3171082562        0.8438799361
 C         -3.3975661140       -3.7671086313       -0.4644864638
 C         -3.8517343547       -2.9249124352       -1.4679014515
 C         -4.2182286655       -1.6235131446       -1.1622015437
 H         -4.5655272387       -0.9315628414       -1.9131290687
 H         -3.9201210007       -3.2755325179       -2.4857057434
 H         -3.1094838278       -4.7783610503       -0.7050788157
 H         -2.9482448091       -3.9733729712        1.6203608491
 H         -3.6156537767       -1.6365439983        2.1619743690
 H         -4.0078681288        1.4522234414        2.4665538471
 H         -2.3735238025        3.1305136929        2.7812632152
 H         -0.2673107985        4.1543745314        2.0007009523
 H          0.9008937894        3.2359223639        0.0320405517
 H          0.3535210495        1.9931717037       -2.1975965858
 C         -0.5046476968        0.0568093526       -2.2367930853
 C          0.2327241688       -0.9264523813       -3.0947466885
 C         -0.4245232008       -1.3822390275       -1.8283795532
 H         -1.3183733806       -1.9843693079       -1.9005005180
 H          0.1968537496       -1.6245989808       -0.9813748368
 H         -0.2077334755       -1.2126796120       -4.0379018243
 H          1.3106908908       -0.8575863390       -3.1200861194
 H         -1.4607527277        0.4050491864       -2.6176740467
