  62
        -98.93028925
 C         -2.5195903939       -1.3054317393       -0.2509940816
 C         -2.1080931139       -0.0568335517       -0.7814162218
 C         -3.1667381084        0.9593398645       -0.9188267781
 C         -4.4316728632        0.6532587077       -0.5818896168
 C         -5.5890026035        1.6079277739       -0.6204967861
 C         -5.7586806131        2.3257764294        0.7258508999
 C         -4.4631754333        2.9237978387        1.2747598185
 H         -4.7093084579        3.4296365850        2.2108492953
 H         -3.7705830691        2.1148499606        1.5193070693
 C         -3.7691423278        3.9122674492        0.3273044194
 H         -4.4736027332        4.2557685919       -0.4310323291
 H         -3.4568824495        4.7874299873        0.9009204074
 C         -2.5173420296        3.3620779380       -0.3594761557
 H         -1.8421583876        2.9343947386        0.3869140841
 H         -1.9910306126        4.1972583263       -0.8297758540
 C         -2.7602913908        2.3067713109       -1.4459037620
 H         -3.4942369683        2.6789795008       -2.1638713479
 H         -1.8128860948        2.1498929839       -1.9707814130
 H         -6.1391592094        1.6072565199        1.4553211807
 H         -6.5027701096        3.1149766576        0.6050316702
 H         -6.4955621053        1.0404066748       -0.8366801808
 H         -5.4275690329        2.3341280883       -1.4146073045
 O         -4.7940171092       -0.5674102632       -0.1112293218
 C         -3.8518113513       -1.5614672698        0.0837905988
 O         -4.3189664555       -2.6201782361        0.5519027067
 O         -0.9303243300        0.2149502633       -1.1256260947
 C         -1.5399190106       -2.4475184156        0.0014808415
 C         -0.4507594761       -1.9717397989        0.9311818038
 C         -0.7398519881       -2.0046491922        2.2961558790
 C          0.1635685281       -1.5410036057        3.2316059587
 C          1.3848979351       -1.0312377388        2.8287740541
 C          1.6899184890       -0.9948266270        1.4740387158
 C          0.7766982817       -1.4615202462        0.5361293547
 H          1.0374969801       -1.3718603602       -0.5009962436
 N          2.9497885325       -0.5288122384        1.0500309695
 S          3.0887488326        0.4770110336       -0.3014605022
 O          2.3539306796        1.7043973088       -0.0901235294
 O          2.7968176353       -0.2754884451       -1.4925405620
 C          4.8416548767        0.8054049208       -0.2306262404
 C          5.7105636636       -0.1796552172       -0.6600007398
 C          7.0748660550        0.0527432153       -0.5916714285
 C          7.5459744305        1.2602864992       -0.0976731302
 C          6.6623827851        2.2403811266        0.3279067891
 C          5.2964023121        2.0127616700        0.2635936145
 H          4.5719267459        2.7482025420        0.5749901368
 H          7.0310519232        3.1794764095        0.7081204760
 H          8.6083084514        1.4396292862       -0.0470195304
 H          7.7647138751       -0.7061373265       -0.9240476732
 H          5.2977836695       -1.0973340107       -1.0451920992
 H          3.4690077885       -0.1155183713        1.8145274317
 H          2.0945195630       -0.6652236811        3.5557110661
 H         -0.0855086605       -1.5722493830        4.2816851996
 H         -1.6987151218       -2.3910611811        2.6148767917
 H         -2.1282620440       -3.1826208317        0.5737432785
 C         -1.1827578851       -3.1663467604       -1.2930454324
 C         -0.2938205702       -2.6582025454       -2.3865163178
 C          0.1347932571       -3.8308723821       -1.5561189328
 H          0.1296806945       -4.8094188848       -2.0131023756
 H          0.9278614127       -3.6826603469       -0.8401601414
 H         -0.6104723439       -2.8434232880       -3.4039766760
 H          0.1980369552       -1.7063352784       -2.2681032331
 H         -2.0591577063       -3.7078306274       -1.6444598061
