  62
        -98.93708400
 C          2.0016132097        1.0788664614        0.2241078499
 C          2.6504280300        0.2618792218        1.1840712400
 C          4.0681925801       -0.0551446278        0.9454334600
 C          4.6659658499        0.4350967221       -0.1542141902
 C          6.0802555999        0.2086106925       -0.6122687002
 C          6.1556063702       -0.9786523877       -1.5869629200
 C          6.3311400407       -2.3445978675       -0.9248111497
 H          6.2400513008       -3.1001521178       -1.7085875195
 H          7.3408372307       -2.4179405771       -0.5152146597
 C          5.3280925609       -2.6658743476        0.1862324105
 H          4.3270710607       -2.3568646380       -0.1209753795
 H          5.3052886712       -3.7500169476        0.3135223008
 C          5.6870376008       -2.0149106872        1.5304402603
 H          6.7046825706       -1.6283233869        1.4793378601
 H          5.6850023311       -2.7767017670        2.3130009405
 C          4.7347033905       -0.9035152973        1.9940870701
 H          3.9079323606       -1.3459520975        2.5587888103
 H          5.2675123703       -0.2449059670        2.6884490399
 H          5.2437776002       -0.9761606682       -2.1897673299
 H          6.9962054601       -0.8218030477       -2.2659443001
 H          6.3819378396        1.1136003424       -1.1437940205
 H          6.7426065200        0.0641614229        0.2360420597
 O          4.0039832496        1.2011985117       -1.0611732103
 C          2.6683484895        1.5364084213       -0.9126893303
 O          2.2250172392        2.2334889610       -1.8451030104
 O          2.0643200203       -0.1837923281        2.2085190602
 C          0.5436539896        1.4148720510        0.4874913999
 C         -0.3710284302        0.5099329105       -0.3025477398
 C         -0.5120128503        0.6323542002       -1.6806441298
 C         -1.3744893101       -0.1989325903       -2.3725469596
 C         -2.1190872997       -1.1580481303       -1.7082815793
 C         -1.9837875296       -1.2884281300       -0.3329869793
 C         -1.1140211898       -0.4571227895        0.3595769505
 H         -1.0012696597       -0.5715147492        1.4294914805
 N         -2.7689070393       -2.2395357600        0.3500017910
 S         -4.4273404793       -2.0731564106        0.1490724511
 O         -5.0216091990       -2.6708583305        1.3235076713
 O         -4.8148353092       -2.6418844810       -1.1166841987
 C         -4.6859132199       -0.3081362307        0.1335791807
 C         -4.5416350300        0.3793679696        1.3225468706
 C         -4.6526702004        1.7599764396        1.3164326502
 C         -4.8954659707        2.4269628493        0.1252932101
 C         -5.0410986206        1.7222395689       -1.0590219497
 C         -4.9337952802        0.3406605590       -1.0586403594
 H         -5.0410721900       -0.2442437613       -1.9570964693
 H         -5.2313752108        2.2437873687       -1.9830371898
 H         -4.9721584010        3.5027109792        0.1224449599
 H         -4.5444841605        2.3117289199        2.2366762301
 H         -4.3583471097       -0.1733661601        2.2302798707
 H         -2.5415562392       -2.3135951297        1.3314919010
 H         -2.8032593896       -1.8069998607       -2.2309695591
 H         -1.4708502102       -0.0969788705       -3.4428018096
 H          0.0748305294        1.3708649402       -2.2040118100
 H          0.3912736198        1.1891354812        1.5515127100
 C          0.1973577292        2.8724251208        0.2538997696
 C         -1.0914584610        3.3983553606        0.8091769496
 C          0.2136026190        3.8248177811        1.4097978094
 H          0.5568501286        4.8341259712        1.2391886391
 H          0.4836705692        3.4316930814        2.3792382294
 H         -1.6474768412        4.1147266203        0.2251325694
 H         -1.7099836407        2.7110879105        1.3667123398
 H          0.5254859590        3.2483070607       -0.7055982505
