  62
        -98.94678341
 C         -0.1696955455       -1.9707975714        0.5517524648
 C         -0.8456534118       -2.0648552923       -0.6885973293
 C         -2.2565626135       -1.6622336116       -0.6741074679
 C         -2.8256259266       -1.2544783593        0.4749170944
 C         -4.2742259720       -0.8908803624        0.6598847833
 C         -4.6127656344        0.5603678933        0.2966167002
 C         -4.5800326668        0.8857782286       -1.1966928771
 H         -5.2083660176        0.1767949530       -1.7366602373
 H         -5.0262087722        1.8742682275       -1.3191831685
 C         -3.1727200047        0.8996909414       -1.8101032426
 H         -3.0537869603        1.7893174348       -2.4318715864
 H         -2.4261295736        0.9664940327       -1.0150676243
 C         -2.8566691804       -0.3113289283       -2.6884711360
 H         -3.5098890507       -0.3105909426       -3.5639756323
 H         -1.8244112933       -0.2225891246       -3.0373326330
 C         -2.9995695994       -1.6625955043       -1.9753145983
 H         -4.0521290319       -1.8967884942       -1.8175498922
 H         -2.5589951326       -2.4352643711       -2.6099832851
 H         -3.9179871339        1.2147863697        0.8234808597
 H         -5.6192045778        0.7629920385        0.6700121057
 H         -4.8944993542       -1.5705486027        0.0747174289
 H         -4.4988993842       -1.0414956357        1.7180995085
 O         -2.1330625874       -1.1566922151        1.6418674655
 C         -0.7882128960       -1.4866039587        1.7030696559
 O         -0.2658202840       -1.3105420702        2.8237086264
 H          1.2189133982        0.2557534248        0.3375977073
 C          1.9383543613       -0.1874084024       -0.3357680307
 C          2.1105099981       -1.5662854644       -0.3333565220
 C          3.0375938080       -2.1218740543       -1.2048054088
 C          3.7615336624       -1.3124579195       -2.0631163909
 C          3.5999505580        0.0602144756       -2.0489333442
 C          2.6828936388        0.6279745775       -1.1709002540
 N          2.4948772691        2.0175403306       -1.1221702274
 S          2.2829305161        2.7852486649        0.3518346658
 O          2.8186821515        4.1145585769        0.1431845663
 O          2.8638532225        2.0273119647        1.4339163638
 C          0.5199044164        2.9306995397        0.5477173526
 C         -0.1288641433        2.2738189346        1.5734721802
 C         -1.4914440978        2.4700183176        1.7388412496
 C         -2.1765889766        3.3181686889        0.8825011703
 C         -1.5129395035        3.9605745833       -0.1520394868
 C         -0.1525067884        3.7679388385       -0.3219350550
 H          0.4048068565        4.2639474500       -1.0989456483
 H         -2.0520496421        4.6136148114       -0.8188749813
 H         -3.2329993657        3.4848668258        1.0242892585
 H         -2.0021140598        1.9543926919        2.5378987493
 H          0.4301382019        1.6226294959        2.2293153698
 H          3.1032945166        2.5467447863       -1.7298994794
 H          4.1747650985        0.6908286097       -2.7102234099
 H          4.4705821009       -1.7569298089       -2.7451065710
 H          3.1890736901       -3.1885627916       -1.2190273214
 C          1.2894945736       -2.3764198158        0.6403685133
 H          1.6218868181       -2.1141576672        1.6563146132
 C          1.4242318445       -3.8736681006        0.4538763278
 C          2.5574133555       -4.6161355359        1.0938566000
 C          1.1643131889       -4.7734592384        1.6230106565
 H          0.6481237680       -5.7062004910        1.4522406311
 H          0.9160881593       -4.3033852522        2.5638479108
 H          2.9979758638       -5.4456404686        0.5615494657
 H          3.2606194686       -4.0449921212        1.6813707143
 H          1.0769235042       -4.2041570219       -0.5183079592
 O         -0.3054191393       -2.4749856633       -1.7483705432
