  62
        -98.93148736
 C          2.2935114799        1.1593954098        0.0364022903
 C          2.2171975299        0.0289177199       -0.8105447598
 C          2.8578595998       -1.2053859402       -0.3146283400
 C          3.4166342498       -1.2150655104        0.9067859101
 C          4.1454173697       -2.3480304605        1.5745368900
 C          5.6588422697       -2.2473660705        1.3183387801
 C          6.1400445897       -2.9141023604        0.0301306600
 H          7.1939433798       -2.6555211404       -0.0950778599
 H          6.0797969697       -3.9984412404        0.1439352298
 C          5.3814877198       -2.5131995802       -1.2377129700
 H          5.2091277799       -1.4354054502       -1.2379536698
 H          6.0193183199       -2.7391110801       -2.0943741000
 C          4.0471668398       -3.2558114101       -1.4034126402
 H          4.0125910397       -4.0872302402       -0.6996478303
 H          3.9994507499       -3.6938691300       -2.4025007602
 C          2.7888758698       -2.3898137901       -1.2402780901
 H          2.5099688399       -1.9671499999       -2.2107773801
 H          1.9534608398       -3.0252563401       -0.9260952603
 H          6.1866521096       -2.7083940807        2.1555583200
 H          5.9257372497       -1.1874412905        1.3077318902
 H          3.7520704097       -3.3056099505        1.2463472798
 H          3.9650486596       -2.2432207207        2.6465248700
 O          3.4327646197       -0.1155013005        1.7099284302
 C          2.8839058098        1.0833232296        1.3009760604
 O          2.9848547798        2.0047390894        2.1359734805
 O          1.6493515700        0.0245645201       -1.9348267798
 C          1.7031344899        2.5156809698       -0.3207931595
 C          0.2527942499        2.5620831498        0.0866668704
 C         -0.2329759901        3.5532319997        0.9300251305
 C         -1.5588156101        3.5507460497        1.3297592405
 C         -2.4249622001        2.5615269998        0.8991389903
 C         -1.9465042801        1.5655496799        0.0587235802
 C         -0.6211709301        1.5735213199       -0.3457930898
 H         -0.2558237501        0.7958557600       -1.0011000998
 N         -2.8211275801        0.5382199900       -0.3774301200
 S         -3.2229304302       -0.5985577402        0.8101129498
 O         -3.5610194203        0.0999226897        2.0234102599
 O         -2.1769998903       -1.5966442802        0.9119892497
 C         -4.6860836102       -1.3223527300        0.0961551796
 C         -4.5965906302       -2.5267381099       -0.5736600906
 C         -5.7383259302       -3.0577266698       -1.1535135107
 C         -6.9420152702       -2.3764463098       -1.0569666507
 C         -7.0154884002       -1.1670189599       -0.3817324505
 C         -5.8779118602       -0.6315779200        0.2003287596
 H         -5.8885608802        0.3005397499        0.7403148298
 H         -7.9536462002       -0.6410895799       -0.3076712405
 H         -7.8286395002       -2.7917952697       -1.5094123508
 H         -5.6837733402       -3.9984571297       -1.6774748208
 H         -3.6413061202       -3.0250630000       -0.6174335706
 H         -2.4081946901        0.0247508201       -1.1471989201
 H         -3.4525159401        2.5374830598        1.2213822002
 H         -1.9202090201        4.3258757296        1.9883846805
 H          0.4414065899        4.3168617696        1.2896647207
 H          2.2465053099        3.2383494397        0.3080156106
 C          1.9384395300        2.9071351600       -1.7738590794
 C          0.8395849801        3.0846250302       -2.7745554595
 C          1.5617258901        4.2823454001       -2.2405075593
 H          2.2413059202        4.8140777602       -2.8889209091
 H          1.0318173501        4.9119967900       -1.5415098792
 H          1.0332244101        2.7674443003       -3.7878923995
 H         -0.1772303099        2.9198288202       -2.4545757195
 H          2.8708525000        2.5041999000       -2.1551811394
