  62
        -98.94095274
 C         -1.5688757036       -0.8463890743       -0.3348864948
 C         -2.8721880349       -1.2658295336       -0.7062134303
 C         -3.9804360584       -0.7452177803        0.1048099488
 C         -3.7058282052        0.0386824143        1.1628662369
 C         -4.7364842876        0.6793503487        2.0457563941
 C         -5.1189807179        2.0742952774        1.5313846133
 C         -5.4557520346        2.1121253968        0.0407141919
 H         -5.7382319201        3.1384722178       -0.2033092128
 H         -4.5559835759        1.8817607674       -0.5343802094
 C         -6.5827509413        1.1585202419       -0.3800238361
 H         -7.2647762536        1.6933539330       -1.0444245391
 H         -7.1570007601        0.8538151629        0.4956885581
 C         -6.1118154935       -0.0864617974       -1.1342524324
 H         -5.4611036160        0.2099941091       -1.9610549061
 H         -6.9892235812       -0.5732126156       -1.5684813150
 C         -5.3754882295       -1.1370679981       -0.2934133101
 H         -5.9718855589       -1.3875853448        0.5863802901
 H         -5.2704003164       -2.0381827109       -0.9049359497
 H         -5.9736827128        2.4323847018        2.1081615605
 H         -4.2804404930        2.7511412473        1.7100088264
 H         -5.6176618300        0.0419847189        2.0879530710
 H         -4.3188480808        0.7732974181        3.0495282273
 O         -2.4428547815        0.3730080200        1.5242199797
 C         -1.3392838367       -0.0511536118        0.7899977130
 O         -0.2537935312        0.3436777003        1.2493020091
 H          2.1147243595       -0.4011641243       -0.6374291254
 C          1.8902398960       -1.3069831401       -0.1011006331
 C          0.6612311663       -1.9238060934       -0.2652942474
 C          0.3931454717       -3.0859999259        0.4532891984
 C          1.3342976918       -3.6137371215        1.3155858850
 C          2.5608691992       -2.9941908213        1.4790376855
 C          2.8351515118       -1.8301003269        0.7706739598
 N          4.0456371511       -1.1584470136        0.9563665021
 S          4.6729318792       -0.0705157960       -0.1284476889
 O          4.5643052716       -0.5465656787       -1.4890287876
 O          6.0226351732        0.1616355110        0.3426948963
 C          3.7232318442        1.4237581681        0.0684985834
 C          3.1031969499        1.7015759466        1.2692170719
 C          2.4001919695        2.8883689711        1.3986338672
 C          2.3365555441        3.7764130310        0.3367048148
 C          2.9709953962        3.4864900976       -0.8612300169
 C          3.6703597167        2.2985818710       -0.9990297674
 H          4.1663649497        2.0264093908       -1.9175121954
 H          2.9181008106        4.1778863986       -1.6872989332
 H          1.7857679391        4.6980385367        0.4413359881
 H          1.8961493576        3.1088461255        2.3256626865
 H          3.1531984887        0.9896789857        2.0757649486
 H          4.7305899537       -1.5982944811        1.5496723667
 H          3.2957452984       -3.4006339504        2.1570008576
 H          1.1135240644       -4.5154529090        1.8669322037
 H         -0.5691251434       -3.5649888065        0.3323101361
 C         -0.4069970382       -1.3614673781       -1.1662610757
 H         -0.8362445551       -2.1956956397       -1.7462136386
 C          0.1311882761       -0.3625199348       -2.1792232602
 C         -0.7843957052        0.6167267745       -2.8492293881
 C          0.2570907297        1.1018494415       -1.8881425757
 H          1.1164203613        1.6245490166       -2.2825592753
 H         -0.0525063328        1.4522016843       -0.9162966137
 H         -1.8170724932        0.6272349650       -2.5318030291
 H         -0.6487081812        0.8126403521       -3.9021438836
 H          0.9094655438       -0.7990463080       -2.7992305415
 O         -3.0978292438       -2.0451895199       -1.6708488425
