  62
        -98.94293272
 C          1.4593833683        1.4941076122        0.1583442493
 C          2.5061966552        1.0156340482        0.9858469775
 C          3.3164830120       -0.0813446735        0.4401590940
 C          3.0019134295       -0.5932433003       -0.7637726783
 C          3.7526190901       -1.7020245298       -1.4429915096
 C          3.1755373662       -3.0825381068       -1.1032464003
 C          2.9229801712       -3.2960891315        0.3886762898
 H          2.1481107366       -2.6020837737        0.7227909153
 H          2.5276386625       -4.3068096888        0.5125928444
 C          4.1686625359       -3.1294823109        1.2703609434
 H          4.1982615470       -3.9474349933        1.9934582390
 H          5.0684158496       -3.2064470491        0.6586497610
 C          4.2139537795       -1.8271931428        2.0717027853
 H          5.0108254296       -1.9142505281        2.8152834171
 H          3.2746724307       -1.6971616264        2.6155006733
 C          4.4835523342       -0.5532046667        1.2610213338
 H          4.6971752500        0.2522811729        1.9700306798
 H          5.3650752673       -0.6978155000        0.6325439978
 H          3.8666345034       -3.8443524200       -1.4686972105
 H          2.2289525393       -3.2000745442       -1.6326920987
 H          4.7982870598       -1.6524217845       -1.1439185301
 H          3.6880008623       -1.5465508748       -2.5212448518
 O          1.9406178259       -0.1658680009       -1.4912339218
 C          1.1403092977        0.8861206420       -1.0577956882
 O          0.2096310112        1.1624372774       -1.8329470840
 O          2.7575754655        1.4916261607        2.1260281364
 C          0.6476518100        2.6735848212        0.6639155204
 C         -0.8264113784        2.4104069698        0.4923885263
 C         -1.6603958093        3.1831977502       -0.3037872464
 C         -3.0021631953        2.8664665205       -0.4287991059
 C         -3.5414645404        1.7812867713        0.2364618980
 C         -2.7146267375        0.9993125665        1.0331988324
 C         -1.3724510686        1.3194493448        1.1588517244
 H         -0.7285646680        0.7053449320        1.7773395527
 N         -3.2543178140       -0.1163273735        1.7098692847
 S         -3.9119178933       -1.3283708648        0.7573062936
 O         -5.0985724517       -0.8268273520        0.1133865891
 O         -4.0946197517       -2.4534413333        1.6465767486
 C         -2.6571746996       -1.6998154579       -0.4519940831
 C         -1.7291649979       -2.6777078093       -0.1551444282
 C         -0.7159624422       -2.9363578890       -1.0630404958
 C         -0.6400524188       -2.2047533961       -2.2382089214
 C         -1.5754584954       -1.2215726420       -2.5184119110
 C         -2.5967842367       -0.9646671937       -1.6184752668
 H         -3.3418974312       -0.2090376184       -1.8051026168
 H         -1.5025642374       -0.6432037059       -3.4244356249
 H          0.1562349861       -2.3935574648       -2.9412689237
 H          0.0109813087       -3.7034527495       -0.8468903943
 H         -1.8256192309       -3.2254311598        0.7689795384
 H         -2.6073345496       -0.5299325971        2.3667763623
 H         -4.5811965514        1.5139900013        0.1382138972
 H         -3.6372785161        3.4729999507       -1.0566084962
 H         -1.2558323835        4.0202372797       -0.8481056799
 H          0.8606712397        2.7082944624        1.7457496689
 C          1.0880667363        4.0154960994        0.0970358809
 C          2.5099284309        4.2509078932       -0.3140636153
 C          1.4287253666        4.2054998997       -1.3495963115
 H          1.1391688618        5.1304967931       -1.8266228064
 H          1.3682008080        3.3439482900       -1.9955864127
 H          2.9605838137        5.2034622411       -0.0788201646
 H          3.1947824992        3.4176868707       -0.2514657947
 H          0.5907892532        4.8439269085        0.5924775150
