  62
        -98.93934737
 C         -1.8648683688       -1.3401404285        0.3349308855
 C         -1.6727836303       -0.1066785453       -0.3292273910
 C         -2.6669580660        0.9457160182       -0.0449389358
 C         -3.6711187156        0.6865156422        0.8102196454
 C         -4.8105184398        1.5931375172        1.1855290676
 C         -6.0326312206        1.3279091291        0.2898183239
 C         -6.0562630537        2.1179015215       -1.0181906482
 H         -6.8951205576        1.7427637187       -1.6090594272
 H         -6.2555440546        3.1689966628       -0.7987884695
 C         -4.7816555138        2.0273913449       -1.8613830661
 H         -5.0402794486        2.2966039264       -2.8874282572
 H         -4.4244969694        0.9960502174       -1.8786298069
 C         -3.6651505734        2.9603351542       -1.3696579698
 H         -4.0839650488        3.6694241769       -0.6558612473
 H         -3.2929888552        3.5507174825       -2.2096124014
 C         -2.4484989487        2.2582006382       -0.7473220402
 H         -1.7216601397        2.0304670965       -1.5336653909
 H         -1.9602223943        2.9473785716       -0.0503392700
 H         -6.0641007511        0.2567771216        0.0739303860
 H         -6.9375628663        1.5738458938        0.8491731345
 H         -5.0760387453        1.3492577860        2.2162653982
 H         -4.5076024942        2.6348265999        1.1388269773
 O         -3.8126513500       -0.5154197729        1.4341561237
 C         -2.9218307164       -1.5494027594        1.2213493400
 O         -3.1695404262       -2.5874543919        1.8673173090
 H          1.3708366729       -2.0294471137       -1.3896275344
 C          1.5167479156       -1.8361658770       -0.3389791970
 C          0.4799345881       -2.0423735786        0.5547890853
 C          0.6976336696       -1.7676922287        1.9028692773
 C          1.9228987542       -1.3041070829        2.3416096818
 C          2.9548042291       -1.0882705435        1.4437926452
 C          2.7426444113       -1.3483697090        0.0971719958
 N          3.7704676130       -1.1047374014       -0.8276999912
 S          4.6936890629        0.2757331313       -0.6431182464
 O          5.1466232866        0.6065512710       -1.9768337849
 O          5.7370623559        0.0309722429        0.3230656412
 C          3.6032151999        1.5485152252       -0.0252593112
 C          2.3687206378        1.7314846496       -0.6152321150
 C          1.5413730476        2.7344042932       -0.1371324908
 C          1.9593532414        3.5382384532        0.9115368008
 C          3.2043789136        3.3456783395        1.4901560327
 C          4.0342896788        2.3409325193        1.0201829410
 H          5.0056029597        2.1497377286        1.4471464028
 H          3.5284182987        3.9715559095        2.3060834230
 H          1.3101817836        4.3171355814        1.2796884417
 H          0.5690578199        2.8658854637       -0.5837003608
 H          2.0410493633        1.0944215497       -1.4205480681
 H          3.4960193224       -1.2350690253       -1.7903865342
 H          3.9165103036       -0.7242106172        1.7676737629
 H          2.0774247220       -1.1018306405        3.3905484679
 H         -0.1148220539       -1.9180580500        2.6009912283
 C         -0.8939579419       -2.4895677182        0.1208386780
 H         -1.2223605610       -3.2927541274        0.7945610236
 C         -0.9626504700       -2.9925112996       -1.3056292629
 C         -0.4474105016       -4.3598232019       -1.6378513454
 C         -1.9218656840       -4.0918543328       -1.6444966640
 H         -2.4355044749       -4.0536213337       -2.5935617616
 H         -2.5211086546       -4.4952836724       -0.8412162035
 H         -0.0428404967       -4.9496492601       -0.8293199758
 H          0.0504957791       -4.5104301448       -2.5838572718
 H         -0.8347187948       -2.2058510519       -2.0399241561
 O         -0.7268685063        0.1121513091       -1.1301143803
