  62
        -98.94528374
 C         -1.7267128323       -0.5370915463        0.8404549600
 C         -2.0739627177        0.0101644986       -0.4204338530
 C         -2.1782888395        1.4776410556       -0.4770207404
 C         -1.8868365530        2.2069807731        0.6135995546
 C         -1.9393484699        3.7053203877        0.6916574319
 C         -0.5882518932        4.3473923697        0.3512154434
 C          0.0354066438        3.8394542856       -0.9489432864
 H          0.9532007378        4.4092752759       -1.1144919444
 H          0.3313394581        2.7938076250       -0.8379181562
 C         -0.8690355572        3.9588571495       -2.1828988662
 H         -0.2720152372        4.3386069652       -3.0148094387
 H         -1.6660376293        4.6807750297       -1.9971729418
 C         -1.4744094123        2.6300599203       -2.6408116074
 H         -1.8631180395        2.7618522606       -3.6546555013
 H         -0.6870794326        1.8722470388       -2.6837243188
 C         -2.6202660111        2.0867392713       -1.7771662240
 H         -3.3578124602        2.8745395525       -1.6043476879
 H         -3.1028968928        1.2800524411       -2.3370827820
 H          0.1100461478        4.1467280896        1.1673118785
 H         -0.7304836235        5.4281093163        0.2863534995
 H         -2.7054449220        4.0681131370        0.0088052227
 H         -2.2143709566        3.9831489979        1.7110730588
 O         -1.4827615151        1.6510169469        1.7852503161
 C         -1.3828485410        0.2746453761        1.9231350072
 O         -0.9781413392       -0.0954172934        3.0433021535
 H          0.8190509641       -1.1605112609        0.4008009557
 C          0.5305188171       -1.9666055821       -0.2578312654
 C         -0.7012299997       -2.5803044197       -0.0678931247
 C         -1.0607722430       -3.6227487044       -0.9100019172
 C         -0.2114856199       -4.0142521902       -1.9313750446
 C          0.9911259208       -3.3665638059       -2.1471287934
 C          1.3608247272       -2.3238450381       -1.3046893347
 N          2.5675089866       -1.6277028187       -1.4788371374
 S          2.5950440460        0.0229364104       -1.1870055181
 O          1.3359631979        0.6520202934       -1.5032560788
 O          3.7458041520        0.4965512005       -1.9288185551
 C          2.9476379188        0.1518048179        0.5529510340
 C          2.1448103134        0.9307344316        1.3615820071
 C          2.4326792519        1.0180699609        2.7139387834
 C          3.5204861074        0.3314523856        3.2304948600
 C          4.3245250028       -0.4396304806        2.4041671027
 C          4.0380437850       -0.5329683922        1.0519029502
 H          4.6363188114       -1.1225813038        0.3775686041
 H          5.1693853196       -0.9710771261        2.8116781276
 H          3.7380908742        0.3975098136        4.2848020442
 H          1.7940217489        1.6051361410        3.3546794126
 H          1.2969043281        1.4386971929        0.9272876633
 H          3.0841400139       -1.8711421775       -2.3115345853
 H          1.6348208252       -3.6547509101       -2.9644432038
 H         -0.5023974254       -4.8222420206       -2.5856987228
 H         -2.0147447278       -4.1089346489       -0.7879953375
 C         -1.5614286701       -2.0354365682        1.0452310656
 H         -0.9882164293       -2.1266506832        1.9832519958
 C         -2.8566726388       -2.8029881486        1.2572217500
 C         -4.0715480905       -2.1252982380        1.8158831541
 C         -4.0666991981       -2.6045120713        0.3968120771
 H         -4.6638481576       -3.4700909737        0.1487442028
 H         -4.0018817959       -1.8763336929       -0.3953755462
 H         -4.0109291725       -1.0614748907        1.9958410691
 H         -4.6697406190       -2.6579986957        2.5398893204
 H         -2.6712551820       -3.8141345640        1.6068314404
 O         -2.3115063891       -0.6782118784       -1.4459233859
