  62
        -98.93689271
 C          0.9534727600        1.7660096091        0.5380416201
 C          0.9614637902        0.6502473591       -0.3330276699
 C          1.8397883703       -0.4708147508        0.0492597502
 C          2.4983595701       -0.4288829908        1.2188321003
 C          3.3735893701       -1.4839960907        1.8493932104
 C          4.3469402403       -2.2440504006        0.9397153106
 C          4.9499959104       -1.4101605806       -0.1999260793
 H          4.7292367403       -0.3527451806       -0.0439437193
 H          6.0357619404       -1.5215963905       -0.1849486792
 C          4.4507597406       -1.8381303606       -1.5816411594
 H          5.1573224407       -1.4819547005       -2.3349912993
 H          4.4436482807       -2.9289773906       -1.6285931994
 C          3.0701650606       -1.3109518507       -1.9693968796
 H          3.1201436006       -0.2305744207       -2.1294993896
 H          2.7933622008       -1.7643694207       -2.9235779596
 C          1.9467223505       -1.5819747608       -0.9544570498
 H          2.0706562105       -2.5490166708       -0.4734310098
 H          0.9972604306       -1.5838499309       -1.4947755099
 H          5.1467593302       -2.6186598006        1.5810617107
 H          3.8476538804       -3.1155663907        0.5192149905
 H          2.7184107201       -2.1997658308        2.3559349503
 H          3.9342561599       -0.9595082307        2.6275513105
 O          2.4090028299        0.6389472992        2.0632952903
 C          1.6468548698        1.7492597091        1.7485641102
 O          1.6620491196        2.6443702991        2.6193666103
 O          0.2658082704        0.5718224890       -1.3779858700
 C          0.0847086899        2.9828868490        0.2709892600
 C         -1.3046507500        2.5485871189       -0.1320295602
 C         -2.0452646599        3.1567608088       -1.1374917003
 C         -3.3183480998        2.7039612187       -1.4407827804
 C         -3.8643457298        1.6207151187       -0.7778858105
 C         -3.1241430199        0.9978111087        0.2231395896
 C         -1.8761229900        1.4891770688        0.5619127197
 H         -1.3216542400        1.0082445989        1.3537769298
 N         -3.6283680799       -0.1282407613        0.8982879295
 S         -2.6773279298       -1.4334689813        1.2999124496
 O         -3.6194203598       -2.4025384013        1.8236238694
 O         -1.6231329200       -1.0456459612        2.2064937697
 C         -1.9643884996       -2.1335995012       -0.1842942803
 C         -1.2357397995       -3.2918880711        0.0098579198
 C         -0.7000003993       -3.9480327510       -1.0851441802
 C         -0.8981461991       -3.4339773010       -2.3579881502
 C         -1.6235346792       -2.2679564711       -2.5364044703
 C         -2.1674519094       -1.6089145512       -1.4430264603
 H         -2.7180623595       -0.6929073712       -1.5761447904
 H         -1.7666329691       -1.8580654011       -3.5231712103
 H         -0.4795460290       -3.9417173210       -3.2125928201
 H         -0.1308624592       -4.8528078310       -0.9436445201
 H         -1.1080146396       -3.6534734011        1.0180568998
 H         -4.5404523498       -0.4363663514        0.5933181993
 H         -4.8464217797        1.2518487486       -1.0332878707
 H         -3.8858519797        3.1902176487       -2.2195744105
 H         -1.6253756099        3.9770874589       -1.6955531002
 H          0.0014773498        3.4874452090        1.2488111100
 C          0.7021779700        3.9912349491       -0.6895476699
 C          2.1669003400        3.9694679992       -1.0076575297
 C          1.1673728502        3.5903881191       -2.0563057298
 H          1.0035618503        4.2736842291       -2.8766715198
 H          1.0713880703        2.5497322191       -2.3219117798
 H          2.6828354000        4.9137356492       -1.0995892996
 H          2.7657160300        3.1880241992       -0.5619500696
 H          0.2547601199        4.9756036290       -0.5941088599
