  62
        -98.93131207
 C         -2.4062185107       -0.9255579200        0.4189521185
 C         -2.6104287104        0.1883500998        1.2726877589
 C         -3.5662109102        1.1981058602        0.8074190492
 C         -4.2066445201        1.0180189708       -0.3619119509
 C         -5.2426267598        1.9337468512       -0.9559582007
 C         -4.6591131995        3.1111598914       -1.7484360102
 C         -4.0082452693        4.2050788309       -0.9012408998
 H         -3.8389186690        5.0611546211       -1.5571955695
 H         -4.7027911492        4.5229334108       -0.1231234298
 C         -2.6709603294        3.8000117503       -0.2650836099
 H         -2.2787082096        2.9129279404       -0.7685147901
 H         -1.9390688792        4.5975335302       -0.4119389695
 C         -2.7393344996        3.5226159098        1.2369348200
 H         -1.7476759597        3.2032925295        1.5701711200
 H         -2.9930546494        4.4423195897        1.7690957903
 C         -3.7466328099        2.4353194800        1.6340111496
 H         -4.7647195298        2.8126335803        1.5383740296
 H         -3.5677224000        2.1670729196        2.6782068495
 H         -3.9307044895        2.7234939414       -2.4641901303
 H         -5.4780684693        3.5593386418       -2.3156320602
 H         -5.8408487499        1.3238756316       -1.6361656809
 H         -5.8912687198        2.3117965811       -0.1652365206
 O         -3.9943218503       -0.0685225090       -1.1473068313
 C         -3.0806791106       -1.0568793694       -0.7958744316
 O         -2.9868344108       -1.9662000091       -1.6378582719
 O         -2.0272157905        0.3264372593        2.3832441590
 C         -1.4020361410       -1.9760795304        0.8769152482
 C         -0.3286469710       -2.1599280303       -0.1667090017
 C         -0.3274054611       -3.1109291200       -1.1806111621
 C          0.7132933689       -3.1662171899       -2.0922021520
 C          1.7753685991       -2.2857452902       -2.0191595416
 C          1.7747836693       -1.3097914306       -1.0283674613
 C          0.7302121493       -1.2562624406       -0.1198613914
 H          0.7445254494       -0.4900185409        0.6433282389
 N          2.8136186196       -0.3679987408       -0.9555956409
 S          3.2379677196        0.2835164485        0.5403890793
 O          3.2973194893       -0.7587543818        1.5402592890
 O          2.3685039899        1.3985076387        0.8228245397
 C          4.8810774398        0.8726960782        0.1754135097
 C          5.0320780402        2.1068172684       -0.4280893199
 C          6.3083349503        2.5477931482       -0.7404185397
 C          7.4058753701        1.7519695478       -0.4470889799
 C          7.2389064097        0.5166266176        0.1606203797
 C          5.9652975396        0.0693481078        0.4750293395
 H          5.7871746893       -0.8787133423        0.9565503191
 H          8.0939940295       -0.0982521327        0.3908397196
 H          8.3978121002        2.0982607876       -0.6907589497
 H          6.4421698006        3.5091530583       -1.2095657893
 H          4.1504067803        2.6933754887       -0.6281776298
 H          3.6222337295       -0.6258013109       -1.5041777209
 H          2.5876254192       -2.3392238602       -2.7279149516
 H          0.6944162388       -3.9142472796       -2.8704854623
 H         -1.1500677913       -3.7935635097       -1.2902058324
 H         -0.9042686609       -1.5004932308        1.7381826884
 C         -2.1119609713       -3.1917608504        1.4604981278
 C         -2.8877328915       -4.2101889299        0.6823778774
 C         -1.6064531217       -4.5987019305        1.3575757573
 H         -1.6646098519       -5.2226002908        2.2371643571
 H         -0.7348942317       -4.7793741805        0.7489670973
 H         -3.8159091117       -4.5599059998        1.1121982372
 H         -2.9273851214       -4.1142323496       -0.3899107926
 H         -2.5532815313       -2.9180441006        2.4164365778
