  62
        -98.93936573
 C         -2.4324509045       -1.2448597192        0.0105908878
 C         -3.1895689666       -0.5330168050        0.9679743572
 C         -3.9219716231        0.6483799097        0.4798135201
 C         -3.8225339115        0.9863137877       -0.8177614406
 C         -4.4373058583        2.1766268927       -1.5007362159
 C         -3.4481662632        3.3541881680       -1.5346083356
 C         -3.4751452895        4.2545077999       -0.2997586059
 H         -2.6429411100        4.9564296126       -0.3922393257
 H         -4.3982826206        4.8378100606       -0.3013060793
 C         -3.3583757326        3.5284095977        1.0431402261
 H         -3.0174241448        4.2524158774        1.7859786933
 H         -2.5920362209        2.7534011492        0.9747037555
 C         -4.6854923774        2.9164084799        1.5166852092
 H         -4.8814616539        3.2318938700        2.5434452488
 H         -5.4967768433        3.3173600741        0.9096116094
 C         -4.7428573217        1.3811358463        1.5059728851
 H         -4.3884400874        0.9972363741        2.4678468944
 H         -5.7863506808        1.0642779016        1.4086312692
 H         -3.6679049644        3.9720511689       -2.4076465222
 H         -2.4428185764        2.9452927341       -1.6708897536
 H         -4.6482826238        1.8713203657       -2.5276434147
 H         -5.3688844436        2.4592524239       -1.0195430184
 O         -3.0679418785        0.2811795913       -1.7052326396
 C         -2.3494401653       -0.8386664240       -1.3212255335
 O         -1.6964355483       -1.3715517747       -2.2375641414
 H         -0.2687412997       -0.3296810428        1.2063838802
 C          0.3737416446       -1.0340541106        0.6911054240
 C         -0.1705278539       -2.2245369952        0.2237020615
 C          0.6642009874       -3.1187375438       -0.4323243239
 C          2.0007631099       -2.8142745267       -0.6277778173
 C          2.5345502832       -1.6242291421       -0.1695345630
 C          1.7101178391       -0.7255716860        0.4954498714
 N          2.2449802602        0.4833419479        0.9788242851
 S          3.0816609612        1.4524190872       -0.1105400563
 O          2.9742698347        2.7941376900        0.4214254535
 O          2.6157347823        1.2589171177       -1.4643152300
 C          4.7672234791        0.9007037463        0.0463826081
 C          5.4683536123        0.5013269593       -1.0743583170
 C          6.7824265901        0.0839013527       -0.9287980738
 C          7.3683283305        0.0739182876        0.3277177870
 C          6.6506514675        0.4799231614        1.4431210169
 C          5.3374829475        0.8998542282        1.3044814594
 H          4.7463000450        1.2260672514        2.1436982580
 H          7.1093755838        0.4702529499        2.4186755118
 H          8.3903426340       -0.2524252611        0.4383197104
 H          7.3414802223       -0.2319523647       -1.7948921432
 H          4.9682190512        0.5194190653       -2.0297196507
 H          1.5765481214        1.0384397464        1.4942285068
 H          3.5725441593       -1.3809673644       -0.3275671274
 H          2.6359396462       -3.5150215687       -1.1477252725
 H          0.2665710370       -4.0489629196       -0.8029209919
 C         -1.6429816844       -2.4644030227        0.4518603823
 H         -1.8122758765       -2.5455492803        1.5359923760
 C         -2.1712864248       -3.7141811683       -0.2187975740
 C         -2.0301045312       -5.0465712358        0.4527153442
 C         -3.3748279305       -4.3921260076        0.3618930489
 H         -4.1085086396       -4.8062886451       -0.3132071789
 H         -3.7998663491       -3.9647292057        1.2584149690
 H         -1.8424300959       -5.9152426983       -0.1599711353
 H         -1.5431821465       -5.0711577045        1.4157173365
 H         -2.0943565001       -3.6707276208       -1.2993744565
 O         -3.2416012599       -0.8619021124        2.1850483576
