  62
        -98.93209038
 C         -1.7089470400       -0.0622555962       -0.8185679046
 C         -2.8868414129        0.7209700474       -0.8146321499
 C         -4.1554008088        0.0131721584       -0.5251426322
 C         -4.1275962686       -1.3089931947       -0.2805173997
 C         -5.2732551794       -2.2199456317        0.0728089071
 C         -5.7310827023       -2.0596056824        1.5315458507
 C         -5.8430255727       -0.6160536612        2.0147650806
 H         -6.0638114940       -0.6402747828        3.0852327885
 H         -4.8768833761       -0.1223944569        1.8950205037
 C         -6.9269963434        0.2156535517        1.3333396211
 H         -6.9512669100        1.1880683522        1.8319702378
 H         -7.8968730373       -0.2616923401        1.4908592569
 C         -6.7420496969        0.4564145260       -0.1663595830
 H         -7.4391818895        1.2481060801       -0.4565000674
 H         -7.0184473099       -0.4228477263       -0.7419518633
 C         -5.3505703813        0.9351758271       -0.5685823146
 H         -5.3956040375        1.3096334627       -1.5985831697
 H         -5.0823368049        1.8060933638        0.0403008613
 H         -5.0052547746       -2.5682794250        2.1706400634
 H         -6.6933127688       -2.5610311799        1.6484352589
 H         -4.9144718055       -3.2419005045       -0.0681798889
 H         -6.1004044362       -2.0626401164       -0.6130197867
 O         -2.9648633142       -2.0226000137       -0.2870832999
 C         -1.7471038848       -1.4331405690       -0.5519163719
 O         -0.7791582255       -2.2206682598       -0.5318873865
 O         -2.9123135877        1.9593955282       -1.0325503915
 C         -0.3278435055        0.4996646882       -1.1079727770
 C          0.3316042599        1.0358306090        0.1361585038
 C         -0.3390922664        1.8777939502        1.0171504167
 C          0.3045809031        2.3715931963        2.1372308332
 C          1.6282803767        2.0552252462        2.3883397056
 C          2.3069192022        1.2136104523        1.5149977092
 C          1.6487847238        0.6974038998        0.4076014829
 H          2.1730304660        0.0275810286       -0.2558738156
 N          3.6440862517        0.8645840359        1.7413625761
 S          4.6948751683        0.6756252216        0.4523767971
 O          6.0085184187        0.8686522530        1.0272637062
 O          4.3454171894        1.5439019676       -0.6468562180
 C          4.5123719106       -1.0311673656       -0.0163797972
 C          4.2278927034       -1.3581785999       -1.3270628159
 C          4.0984596046       -2.6942518297       -1.6717802159
 C          4.2574774020       -3.6743790821       -0.7046957432
 C          4.5477866990       -3.3295589039        0.6067609035
 C          4.6778332156       -1.9958130272        0.9575472622
 H          4.9049530807       -1.6889815926        1.9648814851
 H          4.6695599882       -4.0959607463        1.3551889884
 H          4.1524512358       -4.7130600026       -0.9756794396
 H          3.8701495992       -2.9639673028       -2.6905277381
 H          4.1058590599       -0.5647444392       -2.0482194600
 H          4.0805633511        1.3189627356        2.5297603909
 H          2.1329077131        2.4546821993        3.2549683736
 H         -0.2259699055        3.0231267739        2.8153883516
 H         -1.3621886475        2.1504968792        0.8081805604
 H          0.2661621948       -0.3663965283       -1.4420485782
 C         -0.3146176501        1.5110682122       -2.2469808007
 C         -0.1160878772        2.9806417719       -2.0522504804
 C          0.9743487518        2.1566633203       -2.6646683178
 H          1.1762316299        2.2684866961       -3.7196091572
 H          1.8551679353        1.9665389139       -2.0672497715
 H         -0.6835391264        3.6493243364       -2.6813819685
 H          0.0262106300        3.3483375749       -1.0484472519
 H         -0.9915703866        1.2228060663       -3.0453770901
