  62
        -98.93639400
 C         -2.3911518662        0.4131321467        0.3897654601
 C         -3.6682122257        0.9856883405        0.6238415981
 C         -4.7538607276        0.5421398518       -0.2599131940
 C         -4.4764536792       -0.3141826556       -1.2594188662
 C         -5.4912740765       -0.8877657111       -2.2044801754
 C         -6.0570726167       -2.2123933114       -1.6734129445
 C         -6.5182283890       -2.1477764457       -0.2172924798
 H         -6.9255244493       -3.1282627074        0.0386840270
 H         -5.6496979605       -1.9837943332        0.4247763495
 C         -7.5701489793       -1.0668047045        0.0683454550
 H         -8.0351979913       -0.7467616575       -0.8647427738
 H         -8.3563578575       -1.4992523510        0.6907490148
 C         -7.0359876753        0.1580344426        0.8134116500
 H         -6.4890177213       -0.1641438375        1.7033027886
 H         -7.8906856749        0.7494534163        1.1523657394
 C         -6.1286919838        1.0902055210        0.0004173521
 H         -6.6210258146        1.3575373427       -0.9368343155
 H         -5.9813522403        2.0038768916        0.5838525472
 H         -6.8931658402       -2.5099083704       -2.3088514351
 H         -5.2806870800       -2.9768406355       -1.7530263302
 H         -6.2950361784       -0.1679788798       -2.3468742437
 H         -5.0035863508       -1.0689750711       -3.1637733361
 O         -3.2302125139       -0.7937638878       -1.4938134869
 C         -2.1564052746       -0.4573708164       -0.6763778184
 O         -1.0865939446       -0.9952664377       -1.0136363434
 H          1.1566675133       -0.4272239456        0.9459704340
 C          1.0949831518        0.5077410151        0.4106636158
 C         -0.0630131155        1.2646769573        0.4837662516
 C         -0.1286527918        2.4527502086       -0.2384291920
 C          0.9351974658        2.8661419165       -1.0172774308
 C          2.0855170672        2.1013660947       -1.0978779016
 C          2.1598574189        0.9128143631       -0.3848027395
 N          3.3124047965        0.1105363395       -0.4860658069
 S          4.8084491006        0.8737511248       -0.3199167961
 O          4.8144739965        1.7056790109        0.8640560872
 O          5.1262971495        1.5423030627       -1.5565965861
 C          5.8811748689       -0.5317172006       -0.0995916180
 C          6.2715392107       -1.2463282806       -1.2161734536
 C          7.0825807837       -2.3574683581       -1.0497030889
 C          7.4864950907       -2.7338708147        0.2228151777
 C          7.0877651162       -2.0056899413        1.3335388695
 C          6.2753664585       -0.8939540934        1.1743221316
 H          5.9478641315       -0.2936249514        2.0080018328
 H          7.4060493085       -2.2991208446        2.3209483982
 H          8.1184428874       -3.5987168117        0.3494577931
 H          7.3965642307       -2.9250280045       -1.9108418893
 H          5.9398020614       -0.9122406105       -2.1853121476
 H          3.2558076226       -0.7028364714        0.1118088532
 H          2.9234392032        2.4106329875       -1.7015115052
 H          0.8697048161        3.7910115420       -1.5710503001
 H         -1.0306987308        3.0475590597       -0.1851406519
 C         -1.2571581783        0.8463232107        1.3026675714
 H         -1.6479285021        1.7441641497        1.8097618824
 C         -0.9151580431       -0.1502899423        2.4000535172
 C         -1.9895912857       -0.9769055832        3.0393320333
 C         -0.9423612558       -1.6340769875        2.1937984688
 H         -0.1897227944       -2.2312705387        2.6882043118
 H         -1.2198381574       -2.0024719023        1.2188247939
 H         -1.9597210813       -1.1247372067        4.1083025685
 H         -2.9886370990       -0.8876916582        2.6381008112
 H         -0.1447650083        0.2341454782        3.0623670168
 O         -3.8891450869        1.8316628365        1.5314853795
