  62
        -98.94044615
 C          1.4917966200        1.0918565499        0.0269597700
 C          2.5331231402        0.6248687200        0.8586945599
 C          3.1108512300       -0.6836107602        0.5131769601
 C          2.6102736897       -1.3692585303       -0.5294240897
 C          3.0044063594       -2.7371115405       -1.0290159595
 C          4.5004443994       -3.0748867507       -1.0794953797
 C          5.4211112194       -1.8902299808       -1.4076185602
 H          4.8273366394       -1.0394723408       -1.7459766502
 H          6.0840446092       -2.1730857011       -2.2271988602
 C          6.2926231197       -1.4655698707       -0.2234496605
 H          7.1480469497       -0.9007858708       -0.6014591908
 H          6.6817972797       -2.3619664406        0.2641287597
 C          5.5986487700       -0.5907173503        0.8195744395
 H          5.4043864301        0.4007440996        0.4017374793
 H          6.2864324102       -0.4562037102        1.6578452793
 C          4.2662146201       -1.1354192901        1.3602398399
 H          4.1015474604       -0.6994808299        2.3497960598
 H          4.2921480700       -2.2179097701        1.4612702101
 H          4.6210969191       -3.8516838308       -1.8364986396
 H          4.8074271095       -3.5127380005       -0.1307150897
 H          2.5791902292       -2.8045387307       -2.0334928894
 H          2.4849662395       -3.4786260003       -0.4139806192
 O          1.5902200896       -0.8899044004       -1.2938601396
 C          0.9917019397        0.3276094597       -1.0269039197
 O          0.0533604996        0.6207429996       -1.7924414896
 O          2.9514209205        1.2664970802        1.8622383196
 C          0.8326082002        2.4245096000        0.3374294098
 C         -0.6439532497        2.2060638902        0.5510335202
 C         -1.6337551698        2.9919171602       -0.0247398698
 C         -2.9717378998        2.6778113904        0.1449734906
 C         -3.3493133897        1.5633851106        0.8717061409
 C         -2.3667102997        0.7873345706        1.4706160709
 C         -1.0330136497        1.1254472504        1.3338977905
 H         -0.2763695496        0.5016485505        1.7947917005
 N         -2.7533522697       -0.4151421392        2.1362419313
 S         -2.5294412700       -1.7322658895        1.0961692215
 O         -3.0251114700       -2.8879263892        1.8151794819
 O         -1.1525044701       -1.8296220097        0.6572943712
 C         -3.6147055903       -1.3271537996       -0.2495382284
 C         -3.1213751404       -0.6451394699       -1.3441663386
 C         -4.0039200406       -0.2823691501       -2.3505717385
 C         -5.3487762006       -0.6017680499       -2.2444368281
 C         -5.8254265504       -1.2885467296       -1.1374694079
 C         -4.9518147503       -1.6528799095       -0.1261833780
 H         -5.2711487501       -2.1866748093        0.7537697122
 H         -6.8717238705       -1.5360174695       -1.0582992376
 H         -6.0288180908       -0.3125070900       -3.0301837181
 H         -3.6287883507        0.2544678997       -3.2070425287
 H         -2.0704413904       -0.4015240201       -1.3982148189
 H         -2.2059608195       -0.5884712591        2.9700952112
 H         -4.3843615497        1.2827954707        0.9780237412
 H         -3.7274430998        3.2942981103       -0.3162056294
 H         -1.3551204398        3.8431177700       -0.6242180900
 H          1.2815336805        2.7632888002        1.2832488097
 C          1.1443398301        3.4364707798       -0.7450713705
 C          1.1995134503        4.8991729398       -0.4221368408
 C          2.4627074302        4.1477952796       -0.7130884909
 H          2.9723004300        4.3314916094       -1.6470373410
 H          3.1268270504        3.9212409997        0.1083546590
 H          0.8438866103        5.6034218597       -1.1588331609
 H          1.0103221706        5.1932054501        0.5990797492
 H          0.7607323699        3.1367807896       -1.7140596803
