  62
        -98.94010479
 C         -1.9595896393       -1.4129661114       -0.0922988558
 C         -1.7433275095       -0.0478512622       -0.4022905696
 C         -2.9544160796        0.7536048768       -0.6429429623
 C         -4.1641156295        0.1727106568       -0.5569202310
 C         -5.4737984696        0.8833024260       -0.7348156135
 C         -6.0095811601        1.4066966897        0.6050332149
 C         -4.9776075505        2.1841744723        1.4222048930
 H         -5.4764298609        2.5313848847        2.3297446119
 H         -4.1821878805        1.5034063033        1.7345705552
 C         -4.3583618806        3.3824064203        0.6892259198
 H         -4.9859172704        3.6632170778       -0.1574747612
 H         -4.3343709910        4.2350391123        1.3712307574
 C         -2.9241634204        3.1593582093        0.2056769009
 H         -2.5131669105        4.1271565885       -0.0942401117
 H         -2.3120303906        2.7879402017        1.0318857621
 C         -2.7610857398        2.2045543859       -0.9836198364
 H         -3.4315684796        2.5049886835       -1.7913820874
 H         -1.7305579997        2.2960027151       -1.3386174463
 H         -6.8734109002        2.0437353190        0.4063802128
 H         -6.3460399801        0.5546986613        1.2005032572
 H         -5.3421453395        1.7081680841       -1.4323957958
 H         -6.1940133993        0.1775143047       -1.1522938117
 O         -4.3332827093       -1.1376743523       -0.2444070574
 C         -3.2436825392       -1.9533201913        0.0152669653
 O         -3.5425016690       -3.1222165205        0.3307603485
 O         -0.6085639896        0.4864442478       -0.4796050908
 C         -0.8041436092       -2.3555341303        0.1994473172
 C          0.2032869604       -1.6770485475        1.0963358656
 C         -0.2435132101       -1.1019513742        2.2839217138
 C          0.6278723895       -0.4407398517        3.1268091222
 C          1.9744891496       -0.3553466622        2.8169258124
 C          2.4340992601       -0.9413952055        1.6472217342
 C          1.5540265405       -1.5988333081        0.7953720658
 H          1.9315856009       -2.0266150806       -0.1203963429
 N          3.8115531202       -0.8675159560        1.3434458644
 S          4.4390872300        0.6256862529        0.9133129904
 O          5.8747276900        0.4555851831        0.8839150413
 O          3.9308018495        1.6230836654        1.8188109074
 C          3.8513579704        0.9151528881       -0.7468830406
 C          2.5147343304        1.1959695672       -0.9457992518
 C          2.0547570708        1.3606268134       -2.2426478525
 C          2.9295424511        1.2449764706       -3.3112702819
 C          4.2704470911        0.9643232315       -3.0935293306
 C          4.7369048008        0.7922262453       -1.8006237500
 H          5.7694800508        0.5703696861       -1.5837253691
 H          4.9499776614        0.8753288693       -3.9260318302
 H          2.5631256714        1.3718678776       -4.3180124523
 H          1.0067197608        1.5618909427       -2.3966154034
 H          1.8384239601        1.2690520294       -0.1096560823
 H          4.1076590205       -1.5530282179        0.6619521565
 H          2.6669902393        0.1707529497        3.4531736811
 H          0.2584656391        0.0108733608        4.0356013008
 H         -1.2956111101       -1.1661275038        2.5293979137
 H         -1.2532078992       -3.1856246288        0.7698283094
 C         -0.1812941686       -2.9713112937       -1.0461951809
 C         -0.9370038582       -3.0521457575       -2.3381488309
 C          0.2397248115       -2.1338094869       -2.2158523531
 H          1.1495770118       -2.3948982882       -2.7369031121
 H          0.0616121013       -1.0725015568       -2.1525320762
 H         -0.8349532678       -3.9477027192       -2.9327106783
 H         -1.9262982683       -2.6192672778       -2.3706699624
 H          0.4429125315       -3.8271254529       -0.8071753482
