  62
        -98.94016348
 C         -2.0097363124       -0.1096586588       -0.4924677830
 C         -2.8065267547        0.5781850047        0.4562044052
 C         -4.1316631168       -0.0079563840        0.7216851191
 C         -4.4909146308       -1.1496841603        0.1095577953
 C         -5.8229833636       -1.8242627184        0.2599598245
 C         -6.8176458006       -1.3350112140       -0.8020405452
 C         -6.8942295683        0.1870580299       -0.9221326140
 H         -5.9394366976        0.5629145731       -1.2968733156
 H         -7.6484969319        0.4158128414       -1.6782005068
 C         -7.2449557608        0.9105589835        0.3855250934
 H         -7.6870034505        0.2063273690        1.0912699526
 H         -7.9984946829        1.6719451761        0.1730129102
 C         -6.0666423409        1.6231493074        1.0519113768
 H         -6.4629162230        2.2734843076        1.8362735515
 H         -5.5642615376        2.2616359855        0.3209008475
 C         -5.0162037633        0.7127519823        1.7002469656
 H         -4.3508646370        1.3453386692        2.2950919527
 H         -5.5067995156        0.0044063217        2.3708542488
 H         -6.5165803275       -1.7402498643       -1.7709671148
 H         -7.8047337039       -1.7330359357       -0.5597582951
 H         -5.6786105341       -2.8996089263        0.1419307282
 H         -6.2137706919       -1.6279653048        1.2565567759
 O         -3.6835188502       -1.8035851221       -0.7649108139
 C         -2.4381533657       -1.2974576452       -1.0916503227
 O         -1.8091217447       -1.9834401070       -1.9235283677
 O         -2.4515913702        1.6220955307        1.0593934860
 C         -0.6271077152        0.3602029613       -0.9150013911
 C          0.4256456016       -0.2005715787        0.0054524608
 C          0.3392206578       -0.0343352329        1.3842646270
 C          1.3167750865       -0.5488879141        2.2161008827
 C          2.4017357238       -1.2303822659        1.6923491875
 C          2.5000547998       -1.3958280847        0.3177761843
 C          1.5149374628       -0.8826608400       -0.5159298947
 H          1.5886758195       -1.0298969724       -1.5850825294
 N          3.6268579556       -2.0543085160       -0.2169461176
 S          5.1040692702       -1.3358278859        0.1323868843
 O          6.0134212943       -1.8032354157       -0.8888338603
 O          5.4668268500       -1.6333386399        1.4941843567
 C          4.7814104929        0.4078903057       -0.0548543749
 C          4.7372806594        0.9295897493       -1.3327269748
 C          4.3858978926        2.2587976326       -1.5026386184
 C          4.0716744120        3.0358927802       -0.3980601370
 C          4.1236583690        2.4979539069        0.8781135363
 C          4.4815889420        1.1710049454        1.0555033428
 H          4.5367330023        0.7172583418        2.0311018497
 H          3.8794592221        3.1052352542        1.7347535522
 H          3.7813966393        4.0653445247       -0.5337212040
 H          4.3487474563        2.6822101796       -2.4935856251
 H          4.9890536959        0.2928433412       -2.1660166261
 H          3.5537020553       -2.2267459851       -1.2097130466
 H          3.1772156008       -1.6317306349        2.3247604740
 H          1.2348682714       -0.4163951748        3.2842926187
 H         -0.4991629282        0.5085427230        1.7930241106
 H         -0.4676865596       -0.0866187335       -1.9090480948
 C         -0.5262283135        1.8721469759       -1.0755795790
 C          0.3598723509        2.7386407737       -0.2363260195
 C          0.7171580757        2.4701597990       -1.6648716167
 H          0.6170462588        3.2656919448       -2.3872519983
 H          1.5456662857        1.8028974561       -1.8511894612
 H         -0.0129288179        3.7145409055        0.0337096400
 H          0.9565452711        2.2719371831        0.5313471328
 H         -1.4688804901        2.3100763216       -1.3856683808
