  62
        -98.94532228
 C          2.4620699301        1.1586651621       -0.0497273926
 C          3.1631325232        0.3192874045        0.8477873533
 C          3.7032249510       -0.9230269648        0.2810812622
 C          3.4989269354       -1.1941826657       -1.0211723343
 C          3.9263253137       -2.4570499417       -1.7102398533
 C          2.8148362057       -3.5150539426       -1.6594696267
 C          2.2278564820       -3.7291764459       -0.2639547009
 H          1.4756712062       -4.5174416978       -0.3444390444
 H          1.6985805487       -2.8227031140        0.0423454020
 C          3.2589545406       -4.1091976493        0.8084712788
 H          4.1710929259       -4.4696277951        0.3317761120
 H          2.8558450717       -4.9314052535        1.4034304202
 C          3.6076426926       -2.9828062980        1.7831360503
 H          4.1676987155       -3.4155988843        2.6162548490
 H          2.6873479188       -2.5585527555        2.1937067358
 C          4.4525787135       -1.8389698211        1.2077823882
 H          5.3367557254       -2.2471473862        0.7147655735
 H          4.7806821988       -1.2159415718        2.0449906695
 H          3.2166311576       -4.4579003771       -2.0349745636
 H          2.0046568598       -3.2009962454       -2.3222676666
 H          4.8282761440       -2.8385776310       -1.2357760110
 H          4.1442855988       -2.2233350323       -2.7535472380
 O          2.8245416676       -0.3621611837       -1.8544885871
 C          2.2686106647        0.8212715150       -1.3899282537
 O          1.6505342403        1.4708386305       -2.2533416319
 O          3.3193312116        0.5904996524        2.0700679159
 C          1.8234100091        2.4304343229        0.4827856383
 C          0.3244071270        2.2980908768        0.3676231357
 C         -0.4905221297        3.2165990469       -0.2789085384
 C         -1.8525093155        2.9896393420       -0.3865670795
 C         -2.4293460961        1.8519256674        0.1469151070
 C         -1.6238687963        0.9312757143        0.8049562289
 C         -0.2641442389        1.1644531311        0.9168973335
 H          0.3630316790        0.4408612466        1.4249431719
 N         -2.2041845635       -0.2394437969        1.3439857024
 S         -2.8118984811       -1.3199863205        0.2005195292
 O         -2.8045244979       -2.6110058790        0.8544677441
 O         -2.0889745041       -1.2282419983       -1.0480511307
 C         -4.4946135226       -0.7848230687       -0.0193536569
 C         -4.9072418038       -0.2993282155       -1.2444900504
 C         -6.2205211938        0.1205308084       -1.3896824539
 C         -7.0915320200        0.0482154516       -0.3131298678
 C         -6.6613138940       -0.4443302383        0.9101509826
 C         -5.3503196743       -0.8667518809        1.0618803759
 H         -4.9750704274       -1.2611527092        1.9913173015
 H         -7.3418797558       -0.4997625364        1.7443786523
 H         -8.1120294579        0.3774857263       -0.4289039398
 H         -6.5564598623        0.5034449520       -2.3399117423
 H         -4.1912809817       -0.2565557487       -2.0499085296
 H         -1.5730984702       -0.7378271436        1.9570394896
 H         -3.4880458291        1.6699192965        0.0589433286
 H         -2.4728504593        3.7086537147       -0.8993507676
 H         -0.0578541006        4.1030187807       -0.7123518269
 H          2.0838856973        2.4622562014        1.5512064869
 C          2.3892564803        3.6587473175       -0.1947156106
 C          2.3536338394        4.9831380335        0.5061506210
 C          3.6548887467        4.2603294910        0.3357644614
 H          4.3750062338        4.6486057902       -0.3686311677
 H          4.1007886828        3.7945620041        1.2025493205
 H          2.1822115093        5.8724986375       -0.0809231196
 H          1.9169151248        5.0139716405        1.4927968880
 H          2.2563530991        3.6414152421       -1.2702222160
