  62
        -98.94312012
 C         -1.4909019461       -1.3729972202       -0.3253925819
 C         -1.5756263335        0.0109016948       -0.6210232068
 C         -2.6603083630        0.7411074521        0.0523222310
 C         -3.4687969823        0.1069790238        0.9182490077
 C         -4.5949404142        0.7263148354        1.7010272756
 C         -5.9113874239        0.8423983181        0.9201793567
 C         -5.9319941315        1.9158330425       -0.1689201628
 H         -6.9719161711        2.0371024216       -0.4786154408
 H         -5.6050993452        2.8661994273        0.2542682427
 C         -5.0847477751        1.5816041601       -1.4045352080
 H         -4.8608244492        0.5124294799       -1.4129725801
 H         -5.6588735429        1.7967258622       -2.3085538497
 C         -3.7735978489        2.3615862877       -1.5032073918
 H         -3.2367128829        2.0201904536       -2.3916735545
 H         -3.9878832918        3.4254805070       -1.6265966564
 C         -2.8467714791        2.1876509585       -0.2932139786
 H         -1.8648368615        2.5979692481       -0.5428126083
 H         -3.2379812212        2.7342885553        0.5649092000
 H         -6.1410925731       -0.1299827703        0.4783638943
 H         -6.6978152879        1.0732920445        1.6424840728
 H         -4.7626982648        0.0803295134        2.5657523878
 H         -4.2920341033        1.7110189312        2.0592028400
 O         -3.3358604500       -1.2166806212        1.2026229718
 C         -2.3574130122       -1.9793951700        0.5875664985
 O         -2.3616056249       -3.1812102356        0.9265008062
 O         -0.8054130467        0.6250215288       -1.4016340870
 C         -0.4366751972       -2.2956079343       -0.9147276907
 C          0.7872526499       -2.3508927334       -0.0331915758
 C          1.4653929599       -3.5474074185        0.1711361303
 C          2.5895878396       -3.5872283123        0.9766892238
 C          3.0522946243       -2.4420285441        1.5984237080
 C          2.3695911049       -1.2426194156        1.4173074725
 C          1.2533032018       -1.2048716102        0.5941983312
 H          0.7255561030       -0.2746432960        0.4700507691
 N          2.7853963996       -0.0897452024        2.0863820867
 S          2.4020582352        1.4725287535        1.6510104263
 O          3.1705852517        2.2741447186        2.5807569987
 O          0.9755166262        1.6720022525        1.6737041625
 C          3.0788818422        1.6924920066        0.0158753395
 C          4.4494032612        1.8573436544       -0.0713162685
 C          5.0313508713        2.0228847856       -1.3161786616
 C          4.2351949697        2.0238976205       -2.4523188674
 C          2.8638221199        1.8605504722       -2.3469268590
 C          2.2727611725        1.6886676917       -1.1031589292
 H          1.2070109288        1.5470413753       -1.0098860602
 H          2.2386557746        1.8621582987       -3.2252935273
 H          4.6850335619        2.1551409572       -3.4238377755
 H          6.0984987417        2.1526742006       -1.3978600607
 H          5.0278370790        1.8730821679        0.8380463746
 H          3.6561721769       -0.1562632182        2.5892257067
 H          3.9219089301       -2.4754391139        2.2364197372
 H          3.1084048348       -4.5215641947        1.1279527290
 H          1.0937802482       -4.4525774772       -0.2861607541
 H         -0.8898523189       -3.3004431069       -0.9032943056
 C         -0.0971239747       -1.9673972216       -2.3627880042
 C          1.1966152499       -1.3423538503       -2.7794235428
 C          0.9230963678       -2.7774182321       -3.1070686611
 H          0.7168549087       -3.0449554016       -4.1323501453
 H          1.4677775316       -3.5276162646       -2.5552418801
 H          1.1648718504       -0.6113548076       -3.5718411343
 H          1.9226366674       -1.1192590432       -2.0127202224
 H         -0.9774515227       -1.6669390950       -2.9214945504
