  62
        -98.93710873
 C         -1.2053599298       -1.1797218399        0.2619430011
 C         -1.6786163296       -0.1104714696        1.0660736508
 C         -2.5982135596        0.8310862103        0.4211800506
 C         -2.8799937097        0.6929039299       -0.8865078693
 C         -3.7826096397        1.5820074597       -1.6981152195
 C         -5.2705717497        1.2213756999       -1.5887319093
 C         -5.9300662296        1.5773633003       -0.2555357094
 H         -5.7323258796        2.6236967603       -0.0206243297
 H         -7.0080731896        1.4741321103       -0.3947816093
 C         -5.4989132196        0.6921226206        0.9223884308
 H         -5.0314686397       -0.2188693596        0.5414840810
 H         -6.3814243396        0.3852006808        1.4883325510
 C         -4.5418500095        1.3654147608        1.9065944006
 H         -4.2749559495        0.6370126810        2.6766116708
 H         -5.0477651194        2.2008379210        2.3956478004
 C         -3.2444863095        1.8827193705        1.2712112204
 H         -3.4497348295        2.7776639004        0.6843137901
 H         -2.5466086095        2.1381680007        2.0719459302
 H         -5.3864029998        0.1517660998       -1.7783334890
 H         -5.7952229197        1.7575505697       -2.3829665395
 H         -3.4776785298        1.4692745694       -2.7407106795
 H         -3.6407506696        2.6226369198       -1.4048885798
 O         -2.3339423098       -0.2894337203       -1.6471445591
 C         -1.5061219698       -1.2641046802       -1.0988888289
 O         -1.1184549299       -2.1042194305       -1.9275887787
 O         -1.3499024496        0.0461785507        2.2728297608
 C         -0.3019919298       -2.2013907897        0.9426615713
 C          1.0797150002       -2.1138639900        0.3468568612
 C          1.5246933301       -2.8037812603       -0.7751204886
 C          2.7953199201       -2.5848311705       -1.2818318187
 C          3.6517320202       -1.6712667104       -0.6950929591
 C          3.2141168803       -0.9644937101        0.4162331608
 C          1.9468568803       -1.1924664999        0.9283636409
 H          1.6116141204       -0.6261616096        1.7882627408
 N          4.0644429804        0.0091079100        0.9945200704
 S          4.2371468204        1.4011575798        0.0782607100
 O          4.8378512603        1.0520712094       -1.1825620799
 O          4.9699065105        2.3318297300        0.9050646397
 C          2.5710070104        1.9879823198       -0.1742325300
 C          2.0634530605        2.9482016001        0.6778094997
 C          0.7507044805        3.3603253301        0.5176416797
 C         -0.0315016996        2.7975180599       -0.4784935801
 C          0.4890331403        1.8256869796       -1.3185752099
 C          1.8030319503        1.4138332496       -1.1678083398
 H          2.2379822202        0.6636707494       -1.8086341596
 H         -0.1249183397        1.3785016694       -2.0849007697
 H         -1.0549271796        3.1133480799       -0.6010425201
 H          0.3386472106        4.1128444403        1.1704693695
 H          2.7074005506        3.3614395202        1.4376991196
 H          3.7792809204        0.2728207303        1.9283336504
 H          4.6333983001       -1.4742837706       -1.0936782792
 H          3.1183902000       -3.1324421808       -2.1544332486
 H          0.8710692400       -3.4883664504       -1.2849588284
 H         -0.2139160297       -1.8143804394        1.9699053712
 C         -0.9625067998       -3.5650304896        1.0995892918
 C         -1.2464114700       -4.5518705599        0.0085877720
 C         -0.2068611899       -4.8589042597        1.0431362021
 H         -0.4287875799       -5.6137231695        1.7828303323
 H          0.8309707401       -4.8220130298        0.7509261020
 H         -2.1867378300       -5.0832112799        0.0588312922
 H         -0.9520520700       -4.3116499502       -0.9987199680
 H         -1.7354940998       -3.5054439794        1.8625192718
