  62
        -98.94071011
 C         -1.7355785197       -0.3520648668        0.4722887512
 C         -2.9242768117       -0.4963744416        1.2323851698
 C         -4.1563175226       -0.7255366869        0.4701032044
 C         -4.1082156414       -0.7749452539       -0.8733112743
 C         -5.2738045004       -1.0197569125       -1.7928574737
 C         -6.0910063357        0.2393988813       -2.1130293680
 C         -6.9598351047        0.7603553283       -0.9674291113
 H         -7.6368394883        1.5045569126       -1.3916408507
 H         -7.5732982563       -0.0530996354       -0.5787596502
 C         -6.1726494681        1.4079865133        0.1804435742
 H         -5.1630706913        1.6487033204       -0.1609320934
 H         -6.6475929806        2.3506513808        0.4618641417
 C         -6.0770822798        0.5542372540        1.4449895490
 H         -7.0733690531        0.4181590873        1.8715643791
 H         -5.4685481485        1.0918917149        2.1767613491
 C         -5.4454849471       -0.8270881089        1.2280990567
 H         -6.1431534959       -1.4819999451        0.7064821332
 H         -5.2233144712       -1.2591795103        2.2069780007
 H         -6.7442492909       -0.0016884472       -2.9547986348
 H         -5.4067735565        1.0264433867       -2.4385119134
 H         -4.8577788840       -1.4059130261       -2.7258280590
 H         -5.9274621829       -1.7790731166       -1.3626439273
 O         -2.9516155574       -0.6168640460       -1.5677257581
 C         -1.7428314356       -0.3776325168       -0.9234105856
 O         -0.7850359018       -0.2135037688       -1.7005678672
 O         -2.9534661418       -0.4328201049        2.4903859440
 C         -0.4463057883       -0.0889199272        1.2287264827
 C          0.2998891593        1.0659365413        0.6100596226
 C         -0.3517949661        2.2904123642        0.4786538630
 C          0.2848364222        3.3733416657       -0.0931712064
 C          1.5973302138        3.2686979035       -0.5213147252
 C          2.2604899511        2.0573370283       -0.3835683947
 C          1.6092914168        0.9639070927        0.1710628073
 H          2.1361005605        0.0276347311        0.2406695546
 N          3.5914753869        1.9071949492       -0.8038506285
 S          4.6642413379        1.1054601413        0.2000931912
 O          4.3317930125        1.2999174178        1.5926483269
 O          5.9713669920        1.5736817544       -0.2105226582
 C          4.5156372140       -0.6152098380       -0.2298136412
 C          4.4923924708       -0.9698060418       -1.5638775128
 C          4.4244922982       -2.3130355928       -1.8971127799
 C          4.3887764252       -3.2737565851       -0.8977866815
 C          4.4153443925       -2.9012419014        0.4376009966
 C          4.4801112540       -1.5590268746        0.7774937010
 H          4.4933452813       -1.2238966431        1.8025116510
 H          4.3841022084       -3.6493205867        1.2139585010
 H          4.3359374769       -4.3186642587       -1.1603763477
 H          4.3991173421       -2.6068874422       -2.9340625078
 H          4.5217159651       -0.1971764051       -2.3137498893
 H          4.0065697224        2.7365704463       -1.2030597479
 H          2.1000911555        4.1160857501       -0.9627270093
 H         -0.2390252101        4.3117109260       -0.1990424311
 H         -1.3741514778        2.3766807678        0.8222628480
 H         -0.7798376853        0.2287087685        2.2317986954
 C          0.4209985217       -1.3219665110        1.4337765435
 C         -0.1804436311       -2.6939526268        1.4761182979
 C          0.6974708297       -2.2963899401        0.3294637218
 H          1.6855303437       -2.7278569402        0.2639163761
 H          0.2414884715       -2.1038202367       -0.6285392407
 H          0.2021272099       -3.3978262315        2.1997281686
 H         -1.2431864665       -2.7802656038        1.3020641886
 H          1.2328056895       -1.1318799730        2.1303740150
