  62
        -98.94018007
 C          1.7642766943        0.8714530316        0.5048322323
 C          1.7496021926       -0.3428727162        1.2320322758
 C          2.1831989038       -1.5571771838        0.5198623794
 C          2.5003987375       -1.4754413526       -0.7853275767
 C          3.0038128429       -2.5247724281       -1.7543485097
 C          2.8775640557       -4.0116793923       -1.4333811352
 C          1.4423674061       -4.5314300232       -1.3816011780
 H          1.0093496951       -4.4683520208       -2.3832549618
 H          1.4725221328       -5.5856355035       -1.0960956055
 C          0.5117495717       -3.7862541706       -0.4276380829
 H          0.3496738951       -2.7682989554       -0.7925886806
 H         -0.4618611501       -4.2850575591       -0.4523722271
 C          0.9803830728       -3.7452357818        1.0265654663
 H          0.1421473794       -3.3905214940        1.6304256909
 H          1.2226621114       -4.7569896384        1.3577177577
 C          2.1862238186       -2.8313071822        1.3164035785
 H          2.1391582462       -2.5332530560        2.3679784442
 H          3.1259191077       -3.3601784964        1.1694730644
 H          3.3975803043       -4.2460704519       -0.5091498541
 H          3.3943856515       -4.5467237853       -2.2348415917
 H          2.4893952989       -2.3186262720       -2.6986940317
 H          4.0622955478       -2.2941655684       -1.9213313844
 O          2.4540877937       -0.2923045732       -1.4599966155
 C          2.0634839598        0.8931872862       -0.8581418763
 O          2.0439253679        1.8653088238       -1.6363067899
 H         -0.8992021578        0.9046116893        0.4031774168
 C         -0.8747495248        1.9065391423        0.0053499090
 C          0.1840081344        2.7379241829        0.3487445321
 C          0.2038702636        4.0301007334       -0.1549778450
 C         -0.7967271621        4.4535803572       -1.0140962859
 C         -1.8095241693        3.5986914928       -1.4078031858
 C         -1.8418535104        2.3041432343       -0.8989236114
 N         -2.8418780471        1.3957912540       -1.2727167861
 S         -2.5482659233       -0.2536210597       -1.2920205038
 O         -1.1740918390       -0.5751982708       -1.5976223715
 O         -3.5422052605       -0.7739582427       -2.2084717392
 C         -2.9769266342       -0.7591978238        0.3605671935
 C         -2.0174488343       -1.2777789237        1.2053559430
 C         -2.3783969333       -1.6342075558        2.4951965770
 C         -3.6898277445       -1.4731749403        2.9136964474
 C         -4.6462146205       -0.9601776810        2.0497511605
 C         -4.2888942581       -0.5968831159        0.7617404577
 H         -5.0002127923       -0.1981520227        0.0579787452
 H         -5.6657636305       -0.8389303962        2.3783227946
 H         -3.9654937143       -1.7495266637        3.9191550018
 H         -1.6264686857       -2.0218585124        3.1645996402
 H         -1.0033386781       -1.3861579580        0.8516721968
 H         -3.4277521506        1.6905547057       -2.0394507867
 H         -2.5614958337        3.9212444174       -2.1118608041
 H         -0.7697983659        5.4584217714       -1.4081614642
 H          1.0162676149        4.6932858218        0.0931258517
 C          1.2647822454        2.1264734228        1.2041818031
 H          0.7970823558        1.7516393002        2.1304289045
 C          2.3456393555        3.1053022724        1.6313127156
 C          3.7394988207        2.6344537402        1.9176865632
 C          3.4731767354        3.5097461751        0.7316264436
 H          3.8120895286        4.5349633917        0.7678655166
 H          3.5080988722        3.0726415605       -0.2534883220
 H          4.2615344451        3.0552058038        2.7639508793
 H          3.9588494865        1.5911636266        1.7413275419
 H          1.9546881706        3.8731210316        2.2920851525
 O          1.3881947816       -0.4154212711        2.4380405708
