  62
        -98.94306959
 C         -2.6840015372       -1.2049011857        0.1306696939
 C         -2.6775749643       -0.1957603593       -0.8621052433
 C         -3.8642574874        0.6682336723       -0.8948312014
 C         -4.8781707445        0.4472481306       -0.0384399500
 C         -6.1635778050        1.2264609303        0.0313081336
 C         -6.0698259712        2.5119798812        0.8646922587
 C         -5.2790496638        3.6502093785        0.2183256947
 H         -5.6584870519        3.8285788773       -0.7882543996
 H         -5.4759578186        4.5498507447        0.8047945612
 C         -3.7624671436        3.4177290891        0.1655401430
 H         -3.2435314747        4.3206947673        0.4948388462
 H         -3.4910508345        2.6217616052        0.8628261393
 C         -3.2221841307        3.0648234437       -1.2203351433
 H         -3.3656072154        3.9111297319       -1.8957675830
 H         -2.1483509087        2.8804617317       -1.1322322110
 C         -3.8648029185        1.8223980446       -1.8509180452
 H         -4.8794258021        2.0474266873       -2.1787229351
 H         -3.2702851859        1.5329061131       -2.7207982529
 H         -5.6302058899        2.2679646149        1.8346233133
 H         -7.0900481322        2.8607408430        1.0408930217
 H         -6.5004228791        1.4687345326       -0.9769664411
 H         -6.9010987220        0.5683220488        0.4957569596
 O         -4.8572228997       -0.5556448205        0.8804037746
 C         -3.7548111858       -1.3856018387        1.0052645925
 O         -3.8483550213       -2.2332380929        1.9167273289
 H          0.9387987218       -2.2168295106       -1.0473370446
 C          0.9136807982       -1.4878258682       -0.2524393373
 C         -0.2379131971       -1.3225049161        0.4991642086
 C         -0.2308017867       -0.3803967730        1.5249458298
 C          0.8905144258        0.3861522422        1.7738754267
 C          2.0322372696        0.2326429657        1.0060471360
 C          2.0419544311       -0.7122975455       -0.0094454863
 N          3.1882050203       -0.8663965420       -0.8028652000
 S          4.7003214792       -0.9011098853       -0.0855811247
 O          5.5472750605       -1.5928773694       -1.0327075811
 O          4.6438143843       -1.4562218718        1.2469420917
 C          5.1879113769        0.8100408654       -0.0155345017
 C          5.0989848260        1.5636763746       -1.1694541666
 C          5.4921165524        2.8918978394       -1.1327287006
 C          5.9687904713        3.4401142158        0.0487974685
 C          6.0549252920        2.6694635681        1.1979650520
 C          5.6616811021        1.3404626488        1.1683231680
 H          5.7045043083        0.7057089575        2.0392206507
 H          6.4252915508        3.0974353177        2.1157017984
 H          6.2745092130        4.4742074639        0.0738539867
 H          5.4251103602        3.4947038705       -2.0241337168
 H          4.7242272557        1.1022397799       -2.0678741693
 H          3.1022737563       -1.5618008807       -1.5291816026
 H          2.9085786239        0.8317743010        1.1918476040
 H          0.8765560442        1.1151482992        2.5700993374
 H         -1.1239504158       -0.2566417559        2.1231247121
 C         -1.4906664456       -2.1328499193        0.2693051185
 H         -1.6749780220       -2.7360188510        1.1704056066
 C         -1.4140681051       -3.0584244375       -0.9269850327
 C         -0.7719450081       -4.4064040592       -0.7990362855
 C         -2.2599272333       -4.2946119367       -0.9382039671
 H         -2.7163729666       -4.5994711669       -1.8679438429
 H         -2.8733146128       -4.4825679475       -0.0689070007
 H         -0.2087049968       -4.7933686523       -1.6352440965
 H         -0.3718292616       -4.6806377464        0.1656252876
 H         -1.3021059864       -2.5221409698       -1.8625473661
 O         -1.7360425419       -0.0254044613       -1.6790278355
