  62
        -98.94198672
 C         -1.0094925026       -1.2740579520        0.0980092169
 C         -1.5057217183       -0.2908963516        0.9829543788
 C         -2.4270121625        0.7047114300        0.4095285981
 C         -2.7348690222        0.6318909713       -0.8969577322
 C         -3.6799959888        1.5179060439       -1.6603187582
 C         -5.0898093075        0.9040829886       -1.7008794578
 C         -5.9812395106        1.2583620508       -0.5109358471
 H         -6.2737265406        2.3080115804       -0.5832940706
 H         -6.8899802296        0.6582740108       -0.5968970375
 C         -5.3609171959        1.0173856364        0.8678316156
 H         -6.1746729877        0.9411123227        1.5915058961
 H         -4.8335062535        0.0618622299        0.8713850276
 C         -4.4104940483        2.1411475563        1.3071313729
 H         -4.5446611759        2.9984164815        0.6474365740
 H         -4.6860215371        2.4757707489        2.3093669559
 C         -2.9228844389        1.7608058493        1.3599970948
 H         -2.6831554758        1.3702911177        2.3542362171
 H         -2.3193656124        2.6653448484        1.2227499436
 H         -5.5911252109        1.2391540808       -2.6112184925
 H         -4.9790687692       -0.1812156709       -1.7696269205
 H         -3.6963160870        2.5181048492       -1.2368763473
 H         -3.2924773919        1.5777379818       -2.6798547193
 O         -2.2444453172       -0.3394379070       -1.7143790835
 C         -1.3608117633       -1.3004577473       -1.2516973212
 O         -0.9762223946       -2.1072653294       -2.1197261748
 O         -1.1915471055       -0.2432797374        2.2035133787
 C         -0.0102746061       -2.2863987835        0.6188078388
 C          1.3345959862       -2.1371157161       -0.0545520385
 C          2.2475063229       -3.1842707160       -0.1227535295
 C          3.4836762892       -2.9985861015       -0.7161004269
 C          3.8437727017       -1.7713619846       -1.2431831309
 C          2.9383172968       -0.7181880344       -1.1813466486
 C          1.7021312114       -0.9090662198       -0.5845397669
 H          1.0008177145       -0.0903503022       -0.5677102783
 N          3.2525046727        0.5339041486       -1.7206476739
 S          2.4965346930        1.9325478840       -1.2287873245
 O          1.1348453409        1.9747358530       -1.7032867549
 O          3.3656014332        2.9834437759       -1.7159033084
 C          2.5354344094        1.9031919549        0.5537873414
 C          1.3553495388        1.9097111470        1.2674977064
 C          1.4036098303        1.8527365969        2.6508535126
 C          2.6302508453        1.7985104031        3.2937649410
 C          3.8098198686        1.8078606820        2.5641281448
 C          3.7654215295        1.8571334074        1.1806377595
 H          4.6617115397        1.8701626748        0.5824144503
 H          4.7614261086        1.7704367751        3.0693907107
 H          2.6646296059        1.7487616116        4.3706300121
 H          0.4807432103        1.8252089743        3.2077816704
 H          0.4168646610        1.9435546069        0.7352023238
 H          4.2088578750        0.6710136206       -2.0079867411
 H          4.8065919250       -1.6298714249       -1.7089538990
 H          4.1799917266       -3.8216632910       -0.7669546312
 H          1.9857899428       -4.1476211707        0.2836080644
 H          0.1216618201       -2.0421539361        1.6846568835
 C         -0.5626350341       -3.6947912534        0.5101081543
 C         -0.2761243046       -4.7137804813        1.5714321695
 C         -1.6463238557       -4.1197533084        1.4543677136
 H         -2.4496158903       -4.7336690637        1.0755739629
 H         -1.9589720101       -3.4040913909        2.2008930743
 H         -0.1388584427       -5.7423481006        1.2732547591
 H          0.3322889779       -4.4090538190        2.4095872318
 H         -0.6363584490       -4.0314022115       -0.5178752801
