  62
        -98.93774831
 C         -2.6247392302       -0.1371407819       -0.5011166111
 C         -2.2460599283       -0.7189108427        0.7320262825
 C         -1.7421880341       -2.1021489087        0.6765770016
 C         -1.6241126293       -2.7144436405       -0.5138612756
 C         -1.1686333676       -4.1205667538       -0.8176556789
 C          0.0098628499       -4.6830281630       -0.0150503053
 C          1.1040696127       -3.6646257956        0.3378189151
 H          2.0737854804       -4.0678137034        0.0382188930
 H          0.9573113114       -2.7332506863       -0.2130830582
 C          1.1692576947       -3.3542346185        1.8347260317
 H          2.1489312512       -2.9251568408        2.0602173643
 H          1.0775404699       -4.2885163476        2.3946661677
 C          0.1244504306       -2.3599490507        2.3385277967
 H          0.3478404227       -1.3654364376        1.9408481833
 H          0.2194703424       -2.2940471510        3.4257287235
 C         -1.3349871466       -2.6993048539        1.9928271915
 H         -1.5051263600       -3.7735069782        2.0167504174
 H         -1.9742149138       -2.2280833955        2.7448299290
 H          0.4410818405       -5.4858828979       -0.6158801325
 H         -0.3582777666       -5.1402524845        0.9023723578
 H         -0.9126210227       -4.1093418934       -1.8801012930
 H         -2.0297387167       -4.7860935637       -0.7014382165
 O         -1.9738880774       -2.1033730051       -1.6825341890
 C         -2.4531931693       -0.8076326578       -1.7095964221
 O         -2.6905910184       -0.3686843051       -2.8558714129
 O         -2.3403053651       -0.1198792317        1.8351683844
 C         -3.0817897020        1.3124864173       -0.5521298918
 C         -1.9339694365        2.1648492419       -0.0662415297
 C         -2.0288642746        3.1218475500        0.9346901126
 C         -0.8960574281        3.7763081017        1.3907577130
 C          0.3527679551        3.4836216519        0.8713857405
 C          0.4490032043        2.5542513320       -0.1524191183
 C         -0.6855424351        1.9215861933       -0.6254546949
 H         -0.5913250906        1.1795856409       -1.4100422616
 N          1.7382822171        2.1739123058       -0.6468142923
 S          2.1155051537        0.6291757340       -0.0528708521
 O          1.5005472652       -0.3924511530       -0.8758801859
 O          1.8066438088        0.6117908126        1.3534336894
 C          3.8842276319        0.6007793006       -0.2758119888
 C          4.4525208677       -0.2072229900       -1.2402580295
 C          5.8285202408       -0.1819138074       -1.4098837605
 C          6.6061840104        0.6497932456       -0.6192085309
 C          6.0200235142        1.4565167824        0.3453071612
 C          4.6461421700        1.4338300845        0.5207523299
 H          4.1447503091        2.0355681915        1.2603302842
 H          6.6283040482        2.1009483694        0.9591878452
 H          7.6761274570        0.6679176295       -0.7540130331
 H          6.2861764053       -0.8096618646       -2.1575089462
 H          3.8080614664       -0.8394082559       -1.8301190638
 H          1.7357243957        2.1044538187       -1.6572638342
 H          1.2458340180        3.9524035979        1.2504406706
 H         -0.9862361964        4.5057106527        2.1812710466
 H         -2.9878510417        3.3369419349        1.3774555308
 H         -3.2575869365        1.5389120834       -1.6141437179
 C         -4.3682608735        1.5174569268        0.2162117480
 C         -5.2839511020        2.6471930811       -0.1458009352
 C         -5.6724301394        1.2357575382       -0.4651064097
 H         -6.4625783769        0.7739295000        0.1072683242
 H         -5.6338856287        0.9128133745       -1.4954619748
 H         -5.8128414922        3.1559549111        0.6456854046
 H         -4.9881905319        3.2874387022       -0.9630835087
 H         -4.2778223409        1.2410745481        1.2599317247
