  62
        -98.93646479
 C          1.9255133225        0.7709165577       -0.0269273118
 C          2.9586988211        0.6275134973        0.9324362459
 C          4.1039031524       -0.2333818789        0.5809958058
 C          4.1066019968       -0.8416392935       -0.6192730122
 C          5.1689223835       -1.7251211953       -1.2172380427
 C          6.3858995436       -0.9317397131       -1.7196973024
 C          6.8768377792        0.1603477678       -0.7729718360
 H          7.6662638931        0.7148078651       -1.2872862213
 H          6.0620844497        0.8606656939       -0.5803988734
 C          7.4440759453       -0.3356723361        0.5549381342
 H          8.2809283211       -1.0094557541        0.3577440445
 H          7.8375216687        0.5356067196        1.0847960010
 C          6.4554674059       -1.0468658569        1.4815215715
 H          6.9261035378       -1.1170447163        2.4665823245
 H          6.2742841031       -2.0672217437        1.1541524133
 C          5.1316551033       -0.3162303780        1.6835244953
 H          5.3342384062        0.7173551420        1.9865540783
 H          4.6107469970       -0.7680621136        2.5365368630
 H          6.1112376509       -0.4546805725       -2.6637210360
 H          7.1963133219       -1.6344311293       -1.9206741277
 H          5.4697597800       -2.4839449902       -0.5008849858
 H          4.7108628564       -2.2346681908       -2.0680310619
 O          3.0886743747       -0.6831023886       -1.5103841106
 C          1.9796027030        0.1059946879       -1.2515838894
 O          1.1465644673        0.1122276446       -2.1781563886
 O          2.9355230002        1.2115695214        2.0495479773
 C          0.7679038687        1.6786634165        0.3504530773
 C         -0.3840371080        0.8970596363        0.9281637937
 C         -0.9677057790        1.2692655117        2.1333594270
 C         -2.0317800511        0.5520580188        2.6531526405
 C         -2.5390916245       -0.5441398052        1.9795623214
 C         -1.9661279139       -0.9205372848        0.7710131192
 C         -0.8975132471       -0.2025542512        0.2536917400
 H         -0.4579785944       -0.4993160534       -0.6872230869
 N         -2.4852910704       -2.0219547790        0.0679165289
 S         -4.1475014628       -2.0885432805       -0.1271750351
 O         -4.7484643751       -2.6312306499        1.0661039804
 O         -4.3628504032       -2.8438701565       -1.3408033508
 C         -4.6553886506       -0.3914580883       -0.3392521673
 C         -4.1823350660        0.2948164800       -1.4402934495
 C         -4.5256211064        1.6279009597       -1.5974894147
 C         -5.3297279617        2.2490597444       -0.6540897279
 C         -5.8022569517        1.5445556395        0.4420902686
 C         -5.4615999214        0.2112580926        0.6048300847
 H         -5.8049815453       -0.3734135544        1.4425069815
 H         -6.4297865959        2.0296332647        1.1721704845
 H         -5.5880424266        3.2888497674       -0.7767128836
 H         -4.1568253717        2.1774247050       -2.4485892389
 H         -3.5596339105       -0.2175296330       -2.1571883980
 H         -2.0077571686       -2.2045293249       -0.8027467906
 H         -3.3612169839       -1.1202256171        2.3720571315
 H         -2.4702969417        0.8482002897        3.5935494361
 H         -0.5716500370        2.1181359976        2.6708820229
 H          1.1686777115        2.3144949334        1.1555034838
 C          0.3444068856        2.6025637199       -0.7842587497
 C         -0.9297222100        2.4501589483       -1.5535320215
 C         -0.7762155782        3.5797061401       -0.5828306653
 H         -0.6618925258        4.5828343800       -0.9641785290
 H         -1.3277077439        3.5153661114        0.3428874957
 H         -0.8988063713        2.6596191290       -2.6118494892
 H         -1.5922921069        1.6414352954       -1.2897593524
 H          1.2018587839        2.9561284960       -1.3488461834
