  62
        -98.94498128
 C          2.4573747733       -1.2175771524        0.1042110207
 C          3.3797315987       -0.6427423219       -0.8094684978
 C          4.1351452784        0.5207356286       -0.3309147975
 C          3.9252966589        0.9687339030        0.9200187784
 C          4.5765630155        2.1808579324        1.5185925252
 C          3.7257014201        3.4375319114        1.2872757877
 C          3.2709720883        3.6190083733       -0.1611441133
 H          2.5750932122        2.8166771001       -0.4194098942
 H          2.7083605584        4.5540391649       -0.2092519291
 C          4.4129723218        3.6543253959       -1.1866706961
 H          5.3567147011        3.8634153455       -0.6817966138
 H          4.2294604295        4.4739310985       -1.8844550193
 C          4.5559531977        2.3811430127       -2.0227176937
 H          5.2343778314        2.5944531493       -2.8528938007
 H          3.5864550687        2.1148568800       -2.4514145614
 C          5.1085135056        1.1560685056       -1.2833441736
 H          5.3378916412        0.3918609498       -2.0315107730
 H          6.0334463675        1.4226984072       -0.7683566126
 H          4.3038869920        4.3085597306        1.6012180837
 H          2.8352840050        3.3749293475        1.9177789522
 H          5.5633209099        2.3113120138        1.0786275322
 H          4.6847062537        2.0191202842        2.5924147642
 O          3.0484354260        0.3844966638        1.7737311745
 C          2.2795445494       -0.7046874429        1.3890673754
 O          1.5093454525       -1.1070643023        2.2845581184
 O          3.5634182297       -1.0878578145       -1.9733283558
 C          1.6312915517       -2.3923189214       -0.3984511478
 C          0.2471833524       -1.8905916822       -0.7317021172
 C         -0.0804264265       -1.5588165514       -2.0423295304
 C         -1.3189190863       -1.0226930325       -2.3462672690
 C         -2.2511540553       -0.7954047027       -1.3492681971
 C         -1.9275381713       -1.1100428500       -0.0364099668
 C         -0.6950900569       -1.6711682570        0.2629831861
 H         -0.4456461159       -1.8886304101        1.2903090423
 N         -2.8590195267       -0.8448501402        0.9889172819
 S         -3.3340739992        0.7636416610        1.1397249563
 O         -2.3195489605        1.6657550675        0.6429994422
 O         -3.7208089496        0.9249007221        2.5246146641
 C         -4.7920490674        0.8643819807        0.1209435858
 C         -4.8395729786        1.7588137887       -0.9302793213
 C         -5.9872554798        1.8211427045       -1.7055720885
 C         -7.0610194716        0.9928582343       -1.4170154348
 C         -6.9982839051        0.1016295578       -0.3559624337
 C         -5.8545417893        0.0351530150        0.4234909972
 H         -5.7651470531       -0.6383691286        1.2592988961
 H         -7.8355784458       -0.5402553548       -0.1342383915
 H         -7.9521065895        1.0426976886       -2.0226310523
 H         -6.0376989782        2.5138411665       -2.5302723045
 H         -3.9775801752        2.3786991235       -1.1194518646
 H         -2.5505565858       -1.1868888484        1.8890643532
 H         -3.2139146193       -0.3667796978       -1.5755468317
 H         -1.5589589525       -0.7727993619       -3.3685022310
 H          0.6566487326       -1.7054402523       -2.8189205969
 H          2.1128438793       -2.6997664638       -1.3362194646
 C          1.6247913769       -3.5737889830        0.5487162253
 C          1.1918350569       -4.9125736948        0.0330179426
 C          2.6330718270       -4.6658763706        0.3602844139
 H          3.0525583154       -5.1347914859        1.2377220179
 H          3.3327463756       -4.5647289033       -0.4564330144
 H          0.6188031909       -5.5545799303        0.6841465398
 H          0.9129019284       -4.9782553462       -1.0076828895
 H          1.3645867541       -3.3157010316        1.5669807515
