  62
        -98.93859130
 C         -1.4369118873       -1.6001901707       -0.1809149947
 C         -1.4801583119       -0.1971822059       -0.3624349589
 C         -2.8230520749        0.3959372740       -0.4734774523
 C         -3.9017117243       -0.4048291800       -0.4010287046
 C         -5.3318663909        0.0556665820       -0.4218500187
 C         -5.7176570760        0.6431182706        0.9507525667
 C         -6.0344531295        2.1386057268        0.9293273305
 H         -7.0239382918        2.2853409423        0.4910235274
 H         -6.0806112799        2.4780181440        1.9663847020
 C         -5.0450118744        3.0185249234        0.1595486750
 H         -5.2486241713        4.0518305815        0.4485859607
 H         -5.2486154581        2.9492474534       -0.9100355832
 C         -3.5583397718        2.7231239851        0.3974088989
 H         -3.0261890248        3.6755264791        0.4363649860
 H         -3.4117627745        2.2380781949        1.3625569760
 C         -2.8877938327        1.8806039336       -0.7031652273
 H         -3.3731885072        2.0810630565       -1.6623196334
 H         -1.8413362163        2.1886063454       -0.7891417738
 H         -6.5888658119        0.1147134026        1.3410808500
 H         -4.8979799834        0.4533696611        1.6469090391
 H         -5.9497063492       -0.8129693911       -0.6505367031
 H         -5.4679708042        0.7960117043       -1.2070786385
 O         -3.8161548701       -1.7494812075       -0.2182434283
 C         -2.5878630319       -2.3811486069       -0.1033016367
 O         -2.6545049489       -3.6155757188        0.0676336713
 O         -0.4522092143        0.5228344496       -0.4303669343
 C         -0.0899770456       -2.2929256353       -0.0786959338
 C          0.7332669995       -1.6383122178        1.0027194515
 C          0.1824205631       -1.4992555426        2.2746966518
 C          0.8879258055       -0.8776756678        3.2859259000
 C          2.1530131646       -0.3682022340        3.0483249080
 C          2.7156725391       -0.5125859902        1.7866592463
 C          2.0133232665       -1.1592423369        0.7782966310
 H          2.4837137410       -1.2743371369       -0.1827965600
 N          3.9988573617       -0.0193425142        1.5167353084
 S          4.4011912047        0.5424289970       -0.0028408091
 O          4.6336101798       -0.5667593464       -0.8947738227
 O          5.5447696984        1.3995014919        0.2344719761
 C          3.0327189495        1.5273663516       -0.5832016156
 C          2.4964062297        1.2754290351       -1.8280848402
 C          1.4653426275        2.0759832727       -2.2894281415
 C          0.9885803741        3.1083935872       -1.4994039808
 C          1.5351956919        3.3471645777       -0.2490238047
 C          2.5694382166        2.5527634772        0.2153707815
 H          3.0176685459        2.7201954447        1.1815588863
 H          1.1536712090        4.1456483361        0.3673152430
 H          0.1804224131        3.7262904785       -1.8590972851
 H          1.0294569674        1.8845527830       -3.2573568545
 H          2.8914665914        0.4560971584       -2.4084595720
 H          4.4092683562        0.5401984982        2.2490999645
 H          2.7001655755        0.1324749345        3.8324149856
 H          0.4462369570       -0.7763343118        4.2659767156
 H         -0.8141305847       -1.8802773571        2.4548765223
 H         -0.2955405835       -3.3318356005        0.2172338366
 C          0.5883610789       -2.2929327702       -1.4327860357
 C          1.5893881202       -3.3528037754       -1.7777491910
 C          0.2392570618       -3.3556468662       -2.4287025616
 H          0.1668610142       -3.0829625202       -3.4708981016
 H         -0.4760241007       -4.1056566435       -2.1232886728
 H          2.4509063078       -3.0774351979       -2.3679875099
 H          1.7946337821       -4.1071480251       -1.0330883243
 H          0.7558684687       -1.2903632004       -1.8108965287
