  62
        -98.94651028
 C          1.1797552679        1.1425831166        0.5740727823
 C          1.6432593781        0.6133100398       -0.6552776341
 C          2.4440458677       -0.6145374872       -0.5522017950
 C          2.5851836214       -1.2262738379        0.6367812594
 C          3.3515606692       -2.4943651253        0.8974819545
 C          4.8562907505       -2.2766667006        1.1101308368
 C          5.6460781447       -1.9167847613       -0.1491698131
 H          6.7049539553       -2.0083878443        0.1008537500
 H          5.4336722230       -2.6460060337       -0.9315708044
 C          5.3855222125       -0.4990978289       -0.6777632882
 H          4.9138233765        0.1003075924        0.1043172418
 H          6.3374448368       -0.0194203335       -0.9164985239
 C          4.5202133095       -0.4400082316       -1.9369278862
 H          5.0468468035       -0.9187594144       -2.7654672750
 H          4.3673826320        0.6102503067       -2.1976733059
 C          3.1426070706       -1.0991915801       -1.7866230335
 H          3.2515900411       -2.1831355843       -1.7694109503
 H          2.5314689855       -0.8177180516       -2.6470631711
 H          5.2658521647       -3.2043058760        1.5166444470
 H          4.9942265300       -1.4960334930        1.8618917997
 H          2.9357224971       -2.9280816881        1.8092398859
 H          3.2003090603       -3.1961206293        0.0771592863
 O          2.0068500821       -0.7545549436        1.7735989494
 C          1.3278446911        0.4506996284        1.7769178726
 O          0.8929403834        0.7904793355        2.8979568159
 O          1.4183407747        1.1322665708       -1.7773203510
 C          0.4262396539        2.4633720013        0.6243953409
 C         -0.9519495284        2.2455591300        0.0501003529
 C         -1.3951699016        2.7940262976       -1.1448902041
 C         -2.6604820861        2.4959173489       -1.6244533571
 C         -3.5067428387        1.6543943797       -0.9255475956
 C         -3.0707922947        1.1040443214        0.2733567760
 C         -1.8054580765        1.4005414145        0.7506858367
 H         -1.4626669329        0.9655242568        1.6814009134
 N         -3.9190950437        0.2243715410        0.9865946047
 S         -4.2058947244       -1.2401743237        0.2243990576
 O         -5.0146087111       -1.0031050160       -0.9434048962
 O         -4.7752904662       -2.1031485790        1.2338469547
 C         -2.5941800653       -1.8323847128       -0.2581000991
 C         -2.0635994906       -1.4329204200       -1.4683856299
 C         -0.7923053058       -1.8602034618       -1.8142444024
 C         -0.0795779358       -2.6760059659       -0.9499326125
 C         -0.6210056231       -3.0588873369        0.2671955238
 C         -1.8889264243       -2.6285356097        0.6218076977
 H         -2.3495657302       -2.9098927988        1.5555745893
 H         -0.0586268340       -3.6868811167        0.9396439881
 H          0.9042578166       -3.0153538556       -1.2294413426
 H         -0.3583701761       -1.5489660772       -2.7506635632
 H         -2.6514445417       -0.8068109219       -2.1192577017
 H         -3.5863629567        0.0418297390        1.9237857861
 H         -4.4871835743        1.3992698090       -1.2939464273
 H         -2.9914932243        2.9253552044       -2.5577984572
 H         -0.7464287481        3.4435807036       -1.7083696237
 H          0.3067178316        2.6994523873        1.6913404868
 C          1.2043941007        3.5797653602       -0.0361736683
 C          0.8632113535        5.0034022230        0.2824404833
 C          2.1391900663        4.4059865920        0.7929455618
 H          3.0719129665        4.7263174406        0.3534364178
 H          2.2108899338        4.1761008182        1.8463914494
 H          0.9202334396        5.7376154470       -0.5065414875
 H          0.0670921302        5.1793975934        0.9901766777
 H          1.5149377071        3.3435498571       -1.0460667191
