  62
        -98.94541495
 C          2.6528144003        1.0607750799        0.2685943691
 C          2.5298644700        0.2946425999       -0.9163194209
 C          3.1396040800       -1.0426134102       -0.8789556210
 C          3.7728527601       -1.4492467402        0.2363044489
 C          4.3821902201       -2.8068578202        0.4311972688
 C          3.3733010301       -3.7808178102        1.0561468090
 C          2.0112725400       -3.7919612301        0.3607386492
 H          1.3904707300       -4.5344671801        0.8675955993
 H          1.5231904601       -2.8238902701        0.5021024793
 C          2.0665317897       -4.1110313501       -1.1397508208
 H          1.2767076696       -4.8283769101       -1.3722981107
 H          3.0190257397       -4.5837861502       -1.3830270009
 C          1.8511465997       -2.9030541301       -2.0538095008
 H          0.9405140197       -2.3748341700       -1.7549240506
 H          1.6917387695       -3.2720330601       -3.0706919507
 C          3.0067386797       -1.8950246802       -2.1088696310
 H          3.9411822496       -2.4188144502       -2.3204243711
 H          2.8033328396       -1.2037371002       -2.9318399109
 H          3.2210025103       -3.4999380002        2.1009319190
 H          3.8011263800       -4.7845480602        1.0331131289
 H          5.2389026202       -2.7073756203        1.0997429187
 H          4.7237505499       -3.1875088003       -0.5291197212
 O          3.8831846603       -0.6784817402        1.3490242689
 C          3.3051236604        0.5803617198        1.4026580390
 O          3.4352142906        1.1605053698        2.5004666790
 O          1.9414181999        0.7033475399       -1.9504410308
 C          2.0020876604        2.4308657899        0.3505002692
 C          0.5184601103        2.2843492800        0.1104556494
 C         -0.2001238698        3.0599160500       -0.7886564405
 C         -1.5524512298        2.8341772701       -0.9829584503
 C         -2.2159199098        1.8410986102       -0.2864678401
 C         -1.5086239797        1.0672215401        0.6246738797
 C         -0.1576467696        1.2996406500        0.8211631195
 H          0.3938203405        0.6900793600        1.5285159994
 N         -2.1770009296        0.0528979602        1.3415397899
 S         -2.8837586098       -1.1632736598        0.4153880900
 O         -2.9575478498       -2.3123467498        1.2924215200
 O         -2.1853828101       -1.3533325798       -0.8346620401
 C         -4.5285346398       -0.5509161297        0.1185520502
 C         -5.3094431597       -0.2338697996        1.2129471804
 C         -6.5920666897        0.2462449005        1.0025275306
 C         -7.0700021699        0.3973112005       -0.2909052894
 C         -6.2745509200        0.0710544504       -1.3786311095
 C         -4.9895570700       -0.4083222997       -1.1752607097
 H         -4.3310982202       -0.6667909597       -1.9892198898
 H         -6.6476122202        0.1894763804       -2.3832319594
 H         -8.0683692599        0.7721276505       -0.4522486992
 H         -7.2133529695        0.5017409505        1.8457069407
 H         -4.8994660395       -0.3689482496        2.1998463703
 H         -1.6026186495       -0.3647005299        2.0606635198
 H         -3.2663232398        1.6568283002       -0.4427205600
 H         -2.0966278099        3.4384693801       -1.6925545902
 H          0.3013710202        3.8313579400       -1.3492955706
 H          2.1502367906        2.7781639699        1.3835765092
 C          2.6806713303        3.4005490299       -0.5931867609
 C          2.6797671804        4.8683945699       -0.2920228809
 C          3.9429239504        4.0749878898       -0.1502045411
 H          4.7305977203        4.2208147197       -0.8739659213
 H          4.3010018405        3.8510590198        0.8443731288
 H          2.6033733203        5.5635742299       -1.1142860409
 H          2.1826916606        5.1932298599        0.6094464791
 H          2.6174405501        3.0863654599       -1.6284978909
