  62
        -98.94176258
 C         -2.2011214414       -1.2596825694        0.2971983569
 C         -1.8071750645       -0.3146949295       -0.6825643864
 C         -2.6136085859        0.9171767272       -0.7426749544
 C         -3.6324329520        1.0883487185        0.1181811864
 C         -4.5150958732        2.3008548224        0.1788098797
 C         -3.9662007082        3.3460029047        1.1595955991
 C         -2.4851488312        3.6643716863        0.9548601369
 H         -2.2142929866        4.4372047691        1.6776879484
 H         -1.8935977515        2.7783332506        1.1984669309
 C         -2.1284603610        4.1389477951       -0.4608081716
 H         -3.0295879678        4.4703454134       -0.9779408008
 H         -1.4635847766        5.0017769450       -0.3825312180
 C         -1.4048407154        3.0961117412       -1.3146304377
 H         -1.0064648475        3.6021692133       -2.1980136056
 H         -0.5551625754        2.6988307616       -0.7540396306
 C         -2.2596344113        1.9203196197       -1.8051249757
 H         -3.1616230512        2.3008016649       -2.2889106048
 H         -1.6773022371        1.3706177401       -2.5505271965
 H         -4.0992656623        2.9711900770        2.1772703304
 H         -4.5539949062        4.2597870209        1.0557224472
 H         -4.6001608079        2.7316528575       -0.8170079613
 H         -5.5050989965        1.9868340831        0.5142785247
 O         -3.9497576168        0.1798549961        1.0761959308
 C         -3.2390618687       -1.0039722316        1.1968050226
 O         -3.6163821650       -1.7326449980        2.1363892774
 H         -0.0599670798       -0.8355248660        1.8478414853
 C          0.5836969127       -1.4349170160        1.2144671926
 C          0.0136141404       -2.4019883971        0.3950222047
 C          0.8514543176       -3.1530546446       -0.4188525153
 C          2.2205590970       -2.9480356937       -0.3977042228
 C          2.7832844494       -1.9858191462        0.4192341716
 C          1.9513384930       -1.2112957436        1.2186836682
 N          2.5050988256       -0.2014304465        2.0213438326
 S          3.7596719813        0.7169420639        1.4047384902
 O          5.0102575918        0.0359064869        1.6365645157
 O          3.6260098014        2.0078190857        2.0454366160
 C          3.4815691993        0.8608605443       -0.3525192583
 C          2.2273466052        1.2152262146       -0.8060367779
 C          2.0105820702        1.3192830152       -2.1695932167
 C          3.0511356639        1.0792615073       -3.0532553000
 C          4.3091784506        0.7357254872       -2.5832271549
 C          4.5281900474        0.6204978215       -1.2200622950
 H          5.4855192128        0.3410152004       -0.8105884260
 H          5.1165780910        0.5502907365       -3.2732426845
 H          2.8765525512        1.1578761926       -4.1146516641
 H          1.0250995594        1.5645381931       -2.5299006278
 H          1.4290527134        1.3885833530       -0.1016212725
 H          1.8247192199        0.3737760307        2.4948090499
 H          3.8481765185       -1.8203764234        0.4516123480
 H          2.8590763524       -3.5438746545       -1.0316274102
 H          0.4344952432       -3.8911457524       -1.0832495984
 C         -1.4835402930       -2.5886305687        0.4592346152
 H         -1.7287407272       -2.9185469516        1.4830989172
 C         -1.9922500387       -3.6770297032       -0.4764463303
 C         -3.3653975161       -3.6132866427       -1.0742330567
 C         -2.1601087010       -3.4441850236       -1.9469511995
 H         -1.9049870715       -4.2440399236       -2.6265554516
 H         -1.9299459404       -2.4599466817       -2.3222584918
 H         -3.9325044601       -4.5293666197       -1.1467170196
 H         -3.9705425740       -2.7446784338       -0.8577022064
 H         -1.6534764483       -4.6626848845       -0.1728357352
 O         -0.8428126810       -0.4761450731       -1.4713713898
