  62
        -98.94946944
 C         -1.1280644597       -1.7059916304        0.1222524991
 C         -1.7262007299       -0.8990429609        1.1188416393
 C         -2.8401104302       -0.0522887811        0.6784429396
 C         -3.2193645502       -0.0693712508       -0.6123365005
 C         -4.3358438904        0.7381780990       -1.2164971702
 C         -3.9343789909        2.1749665693       -1.5784664398
 C         -3.7891914312        3.1291106890       -0.3921232295
 H         -3.7502601115        4.1410916691       -0.8002790392
 H         -4.6769174312        3.0644135885        0.2387084005
 C         -2.5307838111        2.8956188691        0.4551757505
 H         -1.8066593509        2.3189514895       -0.1264874797
 H         -2.0569770814        3.8565354792        0.6726723707
 C         -2.7872494909        2.2053880686        1.7951527702
 H         -1.8260617609        2.0575125988        2.2932492902
 H         -3.3945589711        2.8574659282        2.4274647404
 C         -3.4881926605        0.8448571484        1.6905600098
 H         -4.5413402305        0.9853650882        1.4472790698
 H         -3.4166942803        0.3495580881        2.6624433097
 H         -2.9932374408        2.1469733997       -2.1341692198
 H         -4.7043900810        2.5710286592       -2.2450655197
 H         -4.6314628502        0.2217073392       -2.1323549804
 H         -5.1886927704        0.7566621086       -0.5367249602
 O         -2.6264763699       -0.8660830503       -1.5401625307
 C         -1.5602245897       -1.6892892201       -1.2047648009
 O         -1.1024394194       -2.3479519097       -2.1582333411
 O         -1.3470363900       -0.8868736611        2.3216518293
 C          0.0544084406       -2.5740000601        0.5003601788
 C          1.3177962705       -2.1584391595       -0.2183587310
 C          2.4110009407       -3.0109896591       -0.3373498913
 C          3.5663163306       -2.5851337686       -0.9683031311
 C          3.6686445202       -1.3036226684       -1.4806378407
 C          2.5821556900       -0.4444962988       -1.3684604405
 C          1.4259814401       -0.8789008093       -0.7395542706
 H          0.5826590799       -0.2104172796       -0.6920857804
 N          2.6260036396        0.8565659814       -1.8859883801
 S          1.7443211492        2.0931823609       -1.1934611397
 O          0.3361787192        1.9235685906       -1.4501655398
 O          2.3446997488        3.2939189013       -1.7345813094
 C          2.0962992992        1.9830310305        0.5511423402
 C          1.1481298093        1.5043155099        1.4302069001
 C          1.4771276393        1.3693110296        2.7695424500
 C          2.7437814292        1.7216841099        3.2071874202
 C          3.6839578691        2.2155143005        2.3145198403
 C          3.3619853791        2.3428628708        0.9736292404
 H          4.0620743089        2.7292568412        0.2508820205
 H          4.6662634490        2.4953553407        2.6594674304
 H          2.9971920092        1.6125989997        4.2498500301
 H          0.7385445294        0.9737563392        3.4493931899
 H          0.1684258394        1.2367496397        1.0681970700
 H          3.5253617695        1.1632442818       -2.2240859000
 H          4.5706644601       -0.9748067680       -1.9730086706
 H          4.4040299908       -3.2596484783       -1.0588660613
 H          2.3523457511       -4.0117207393        0.0589583484
 H          0.2102974805       -2.3986254504        1.5765957489
 C         -0.2671435689       -4.0423120602        0.2926345484
 C          0.2216609914       -5.0785852903        1.2589804981
 C         -1.2300998887       -4.7104804507        1.2268992082
 H         -1.9383696185       -5.4163213808        0.8198733380
 H         -1.6249155589       -4.1150212611        2.0373329284
 H          0.5120806017       -6.0445223701        0.8739578378
 H          0.8038202813       -4.7436551604        2.1043234482
 H         -0.3264405288       -4.3074831899       -0.7568948317
