  62
        -98.94124679
 C         -1.3491830571       -1.4511700901       -0.1124957991
 C         -2.5057531525       -1.1089234647        0.6199874600
 C         -3.2296307376        0.1003960030        0.1889947010
 C         -2.7361860298        0.8276446593       -0.8298515763
 C         -3.2912403459        2.0876157541       -1.4454478847
 C         -3.7940704394        3.1659644627       -0.4735717927
 C         -5.3156556598        3.3263081433       -0.4753696629
 H         -5.5600421903        4.3329221853       -0.1289868558
 H         -5.6712652803        3.2399252256       -1.5041933983
 C         -6.0761340312        2.3372903586        0.4062426062
 H         -5.9111090295        2.5890352039        1.4561286949
 H         -7.1420059075        2.4665171619        0.2042172113
 C         -5.7126233448        0.8655433134        0.2010695999
 H         -5.5829442296        0.6481300004       -0.8584275326
 H         -6.5529806047        0.2621579024        0.5507317791
 C         -4.4655829622        0.4260862479        0.9829248666
 H         -4.2104622523        1.1787495912        1.7351977299
 H         -4.6849305197       -0.4905501253        1.5398273532
 H         -3.3542792226        4.1175350273       -0.7774195664
 H         -3.4306804521        2.9553776486        0.5315088699
 H         -4.0896582019        1.8128800882       -2.1398155118
 H         -2.4739761863        2.4881195778       -2.0496114828
 O         -1.6054474244        0.4670265850       -1.4999826643
 C         -0.8818539804       -0.6589681370       -1.1590038040
 O          0.1348826890       -0.8512073506       -1.8542167552
 O         -2.9232126525       -1.7894880163        1.5984692696
 C         -0.5585203681       -2.6853161787        0.2772063343
 C          0.8738177169       -2.3250334318        0.5864566144
 C          1.9480617732       -3.1405675416        0.2504378538
 C          3.2440224141       -2.7584650685        0.5513449165
 C          3.4989316338       -1.5488104404        1.1709119966
 C          2.4309652994       -0.7302849752        1.5177325669
 C          1.1333578622       -1.1329918391        1.2505220187
 H          0.3176715854       -0.4816444469        1.5296419088
 N          2.6314835565        0.5314992392        2.1210103120
 S          2.2149775940        1.8545847045        1.1748558505
 O          2.6189172187        3.0111582086        1.9468561463
 O          0.8227170437        1.7829156914        0.8158831026
 C          3.2731619658        1.6972354973       -0.2528589257
 C          4.4879292106        2.3570582023       -0.2397325568
 C          5.3656824204        2.1713853538       -1.2947545536
 C          5.0204418339        1.3215720755       -2.3352893977
 C          3.7997372209        0.6652760724       -2.3309289517
 C          2.9123596745        0.8492478166       -1.2805119039
 H          1.9554309535        0.3498472951       -1.2634798145
 H          3.5226440809        0.0032180536       -3.1355690303
 H          5.7051497199        1.1700661133       -3.1548272735
 H          6.3141219357        2.6839524857       -1.3006117917
 H          4.7108194608        3.0083887960        0.5901228340
 H          3.5720518265        0.6656069974        2.4686400205
 H          4.5105345173       -1.2366731523        1.3828668716
 H          4.0668318789       -3.4030258213        0.2829655516
 H          1.7694396210       -4.0766023333       -0.2530197290
 H         -1.0291086649       -3.0568944930        1.2002852905
 C         -0.6859510457       -3.7475636184       -0.7968340133
 C         -0.6839134461       -5.2022388521       -0.4350778179
 C         -1.9535753413       -4.5423747901       -0.8789773970
 H         -2.3500297694       -4.7821077817       -1.8541476793
 H         -2.7126631540       -4.3374955731       -0.1381369444
 H         -0.2100214801       -5.9003434996       -1.1086236868
 H         -0.5873242374       -5.4583579820        0.6091546363
 H         -0.2217422480       -3.4486618466       -1.7301992189
