  62
        -98.93714400
 C         -1.5000309908       -1.5492511833       -0.4660481336
 C         -1.4538127708       -0.1694625678       -0.7716445828
 C         -2.4065907083        0.7046165439       -0.0555806780
 C         -3.2753333718        0.1546193962        0.8103585572
 C         -4.3521027189        0.8492418442        1.5985987460
 C         -5.5736440283        1.2223762927        0.7371091956
 C         -5.2516936494        1.7201207697       -0.6707780170
 H         -6.1921818884        1.7816514707       -1.2246659153
 H         -4.6260403309        0.9820743807       -1.1761490207
 C         -4.5796185337        3.0892587049       -0.7415161038
 H         -5.2645182718        3.8428754014       -0.3455704430
 H         -4.4074843521        3.3169857884       -1.7964395147
 C         -3.2504568598        3.2171575672        0.0022838376
 H         -3.4128379512        3.2359260466        1.0767047125
 H         -2.8185920374        4.1871751709       -0.2624520539
 C         -2.2015398326        2.1688476276       -0.3586096452
 H         -1.2600488226        2.4371474488        0.1401409157
 H         -1.9978310929        2.2248528701       -1.4338954673
 H         -6.1550138275        1.9773468790        1.2685662403
 H         -6.1939909861        0.3288628106        0.6350871908
 H         -4.6735844578        0.1530985646        2.3764778903
 H         -3.9343269087        1.7227039305        2.0919712420
 O         -3.3159207473       -1.1882696171        1.0452769041
 C         -2.4184339548       -2.0551565048        0.4560191893
 O         -2.5447216203       -3.2454482627        0.8127940491
 H          0.9840062913       -0.5408241955       -0.0927297266
 C          1.3297291069       -1.4908084258        0.2739132123
 C          0.6807338572       -2.6526022464       -0.1219777591
 C          1.1351458963       -3.8720432854        0.3636335836
 C          2.2041182432       -3.9196665128        1.2419466197
 C          2.8235000652       -2.7573585430        1.6624871386
 C          2.3783610466       -1.5297573840        1.1788390424
 N          2.9980335623       -0.3442175136        1.5849827862
 S          2.2754926638        1.1679726918        1.5947819019
 O          2.9159818156        1.8478073057        2.7033258103
 O          0.8360471212        1.0876569433        1.6492474270
 C          2.8524893602        1.9082772147        0.0801998140
 C          2.0682977791        1.9344814647       -1.0544150320
 C          2.5840557977        2.5088904758       -2.2073704181
 C          3.8624666703        3.0425246428       -2.2093965990
 C          4.6375555132        3.0097055037       -1.0594166317
 C          4.1300906008        2.4379328664        0.0946174032
 H          4.6907714671        2.4047787872        1.0140992641
 H          5.6316008418        3.4271744808       -1.0597206242
 H          4.2551124916        3.4873967130       -3.1102167605
 H          1.9748924903        2.5294342198       -3.0968627824
 H          1.0746288378        1.5126466882       -1.0469055480
 H          3.6678741008       -0.4431575582        2.3322467705
 H          3.6412257897       -2.7944200599        2.3661040061
 H          2.5480784985       -4.8716984253        1.6171339610
 H          0.6315560838       -4.7812078755        0.0692664789
 C         -0.5208746773       -2.5679022747       -1.0300676348
 H         -1.0447058084       -3.5358448859       -0.9743255399
 C         -0.1597523119       -2.3320474528       -2.4892310489
 C          1.1775184338       -1.8365640802       -2.9418436020
 C          0.7931095667       -3.2644704683       -3.1778613715
 H          0.5683219993       -3.5840523059       -4.1841339340
 H          1.2737549434       -4.0171937692       -2.5710910300
 H          1.9248497811       -1.6245369184       -2.1933508322
 H          1.1981750411       -1.1568827339       -3.7795772678
 H         -1.0157903980       -1.9974921416       -3.0659235544
 O         -0.6649584500        0.3395544108       -1.6095143656
