  62
        -98.94533353
 C         -2.6427377812       -1.0901845361        0.2965562329
 C         -2.5935459035       -0.3275280499       -0.8957986861
 C         -3.2448816428        0.9894187307       -0.8398356829
 C         -3.8371489908        1.3858352588        0.3013100719
 C         -4.4809628896        2.7246357358        0.5144399410
 C         -3.4759376454        3.7381557915        1.0798198490
 C         -2.1518211575        3.7893034451        0.3164276530
 H         -1.5333348211        4.5585102106        0.7848027615
 H         -1.6235320816        2.8403155614        0.4418770286
 C         -2.2939490182        4.0905894540       -1.1820593596
 H         -1.5429397497        4.8327174149       -1.4608298646
 H         -3.2735419248        4.5272974133       -1.3807665888
 C         -2.0825852651        2.8812259387       -2.0951289414
 H         -1.1405871023        2.3876852943       -1.8376072069
 H         -1.9875993591        3.2444781820       -3.1220351950
 C         -3.2025711589        1.8326104185       -2.0826368234
 H         -4.1645000563        2.3205812302       -2.2524407054
 H         -3.0154241681        1.1396584526       -2.9080829681
 H         -3.9389386949        4.7263791370        1.0706522385
 H         -3.2617356336        3.4726906872        2.1177451903
 H         -4.8822539517        3.0836694110       -0.4309867977
 H         -5.2996540832        2.6038121898        1.2257192404
 O         -3.8691058239        0.6222312253        1.4238682210
 C         -3.2555960229       -0.6202849237        1.4569160311
 O         -3.3193203506       -1.1966108335        2.5625650279
 H         -0.3488247274       -0.6905047788        1.5131111885
 C          0.1935524916       -1.2762031053        0.7792710427
 C         -0.4840811229       -2.2618426297        0.0712607042
 C          0.2217622101       -3.0068195692       -0.8630510613
 C          1.5635234374       -2.7518503729       -1.0916601475
 C          2.2293080010       -1.7610616605       -0.3941875824
 C          1.5347311400       -1.0164731374        0.5506382711
 N          2.2051990662       -0.0096256130        1.2733520523
 S          2.9460422362        1.2035913276        0.3723124642
 O          2.9994265953        2.3497061989        1.2544295148
 O          2.2871020392        1.3995563448       -0.8980177601
 C          4.5966612973        0.5854166380        0.1233794248
 C          5.3502306698        0.2804392905        1.2400553319
 C          6.6366062264       -0.2044651923        1.0666693868
 C          7.1454026457       -0.3723703380       -0.2128071963
 C          6.3774531047       -0.0574428505       -1.3234210751
 C          5.0890402115        0.4268720345       -1.1570163079
 H          4.4519096490        0.6786808576       -1.9899149036
 H          6.7747500769       -0.1880966979       -2.3171469541
 H          8.1465910094       -0.7509331254       -0.3452476148
 H          7.2368483656       -0.4503505493        1.9277538838
 H          4.9174447845        0.4293033541        2.2151913647
 H          1.6348500943        0.4048623460        1.9971822257
 H          3.2715838495       -1.5553884623       -0.5757511522
 H          2.0977857977       -3.3323756677       -1.8281445328
 H         -0.2811455857       -3.7775800511       -1.4232857083
 C         -1.9558743933       -2.4437832341        0.3559812725
 H         -2.0625732163       -2.7942672350        1.3930861750
 C         -2.6403950501       -3.4301472477       -0.5656970716
 C         -2.5871395704       -4.8977842347       -0.2685297871
 C         -3.8664227182       -4.1408334216       -0.0797253578
 H         -4.6748273060       -4.3080322062       -0.7754494871
 H         -4.1951712118       -3.9291662810        0.9276111494
 H         -2.0489307301       -5.2096087391        0.6137091495
 H         -2.5203946122       -5.5893306282       -1.0946952054
 H         -2.6233734136       -3.1129083293       -1.6017877793
 O         -2.0353543410       -0.7227417903       -1.9517682703
