  62
        -98.94488470
 C          1.9271411206        0.2052734509        0.0818074199
 C          2.9692219607        1.0045975216        0.6109976686
 C          4.2668881006        0.3399375318        0.7710144895
 C          4.3936840706       -0.9607077887        0.4505877814
 C          5.6441851105       -1.7867260886        0.5852802225
 C          6.6093930004       -1.6554068504       -0.6008292078
 C          7.3624083805       -0.3269547905       -0.6822397498
 H          7.8412423506       -0.1230234791        0.2759658498
 H          8.1552595204       -0.4533587517       -1.4221816797
 C          6.4923469605        0.8699456889       -1.0908734315
 H          5.5636398104        0.5089473083       -1.5389025409
 H          7.0107094904        1.4523670277       -1.8559472625
 C          6.1510940006        1.8259691606        0.0521744271
 H          7.0651071407        2.2959412511        0.4217981563
 H          5.5032455406        2.6129344201       -0.3421328140
 C          5.4292984207        1.1654553024        1.2340869881
 H          6.1266441008        0.5545076232        1.8067419390
 H          5.0394728608        1.9542480634        1.8820535770
 H          6.0497580603       -1.8149081217       -1.5254885275
 H          7.3432314004       -2.4600378703       -0.5141801767
 H          6.1613200206       -1.5218732472        1.5079343221
 H          5.3220246005       -2.8280536884        0.6532826841
 O          3.3598200205       -1.7020921794       -0.0292351274
 C          2.1094388805       -1.1383018596       -0.2452179281
 O          1.2688949704       -1.9273750503       -0.7166005569
 H         -1.6760296596       -0.5999681605       -0.9445625485
 C         -1.5358312195       -0.5794862989        0.1224386214
 C         -0.4653893794        0.0952897219        0.6856973803
 C         -0.3124177592        0.0683414639        2.0707359503
 C         -1.1997440092       -0.6280188049        2.8664574215
 C         -2.2664320593       -1.3044454556        2.2993698926
 C         -2.4305292394       -1.2825942477        0.9201978925
 N         -3.4917452595       -1.9801472185        0.3218549137
 S         -4.4073999896       -1.2891452103       -0.8920492072
 O         -5.5667287196       -2.1469306904       -1.0005161759
 O         -3.6229530797       -1.1215121321       -2.0878615076
 C         -4.8902434295        0.2967350207       -0.2345468396
 C         -4.1164868394        1.4091482803       -0.4962286313
 C         -4.4698702593        2.6192886111        0.0801005069
 C         -5.5828991492        2.6960341524        0.9027469269
 C         -6.3524818293        1.5696718828        1.1523827987
 C         -6.0019047494        0.3562495020        0.5836513105
 H         -6.5773431294       -0.5412348578        0.7431064419
 H         -7.2207151992        1.6336488838        1.7882820687
 H         -5.8532423291        3.6401693431        1.3487072155
 H         -3.8734006793        3.4961108908       -0.1155087744
 H         -3.2613156995        1.3136448093       -1.1442256712
 H         -4.0817592595       -2.4780621175        0.9722111145
 H         -2.9573133092       -1.8568804147        2.9180011935
 H         -1.0638891691       -0.6446996733        3.9372882815
 H          0.5240938608        0.5934967545        2.5112821795
 C          0.5619444906        0.8365041806       -0.1319708809
 H          0.6510348307        1.8567724912        0.2691284976
 C          0.2383225704        0.9227563684       -1.6077483710
 C         -0.6854218396        1.9899771677       -2.1109896025
 C          0.7823520504        2.0698285472       -2.4034980228
 H          1.1211031403        1.8829288757       -3.4115467325
 H          1.3699860705        2.8059440180       -1.8744932339
 H         -1.3590858397        1.7481990165       -2.9200614821
 H         -1.0883260595        2.6811233488       -1.3858468535
 H          0.2110505203       -0.0466464623       -2.0932635896
 O          2.8191942807        2.2115815721        0.9398800868
