  62
        -98.93435616
 C          2.1683086880        0.8534624701        0.1896614079
 C          3.0243339015        0.1582221482        1.0767472920
 C          3.8852965806       -0.8940105996        0.5023770880
 C          3.7680559238       -1.1777916514       -0.8079980817
 C          4.5547064683       -2.1699522519       -1.6225541595
 C          5.9737256648       -1.6764779299       -1.9481191835
 C          6.7147025054       -1.0317508418       -0.7796620938
 H          7.6560689495       -0.6306552907       -1.1643477006
 H          6.1319797180       -0.1871087063       -0.4074180711
 C          7.0458125428       -1.9695662489        0.3788512187
 H          7.6592007463       -2.7939476277        0.0084514764
 H          7.6484882714       -1.4024946817        1.0929767108
 C          5.8478686970       -2.5548069240        1.1298820964
 H          6.2273722039       -2.9904646166        2.0588688572
 H          5.3932843238       -3.3687610517        0.5714860820
 C          4.7868222327       -1.5345250421        1.5303867218
 H          5.2674724487       -0.7093794980        2.0686418422
 H          4.1143846579       -1.9993988045        2.2620120730
 H          5.8976493745       -0.9322428148       -2.7445702578
 H          6.5527734838       -2.5195535571       -2.3285782169
 H          4.5850885697       -3.1296197605       -1.1150120612
 H          4.0104089057       -2.3063540770       -2.5596438651
 O          2.8810951202       -0.5274038049       -1.6126949308
 C          2.0621047938        0.4911112582       -1.1536587334
 O          1.3070780410        0.9630654344       -2.0224668456
 O          3.0742901460        0.4036704037        2.3133277882
 C          1.2923023265        1.9505337036        0.7661012169
 C         -0.1381465247        1.7634031310        0.3252543307
 C         -0.8704854730        2.7268317549       -0.3542366123
 C         -2.1833469915        2.4805953362       -0.7175683520
 C         -2.7920727925        1.2771085044       -0.4155804776
 C         -2.0703786121        0.3064910530        0.2675229160
 C         -0.7594691521        0.5598645802        0.6385113482
 H         -0.1965364180       -0.1978096558        1.1716774966
 N         -2.6747336658       -0.9284389272        0.5635630719
 S         -4.1722483321       -0.9184859429        1.3224637570
 O         -4.3378089719        0.2541416839        2.1500854611
 O         -4.2623304777       -2.1962800020        1.9953643896
 C         -5.3384534000       -0.8879806941       -0.0220456462
 C         -6.3061644842        0.0961502277       -0.0719688405
 C         -7.2102638000        0.0937800181       -1.1228493650
 C         -7.1314135821       -0.8877349578       -2.0988441404
 C         -6.1551763989       -1.8708225476       -2.0323773486
 C         -5.2492181330       -1.8750015575       -0.9838986920
 H         -4.4779572678       -2.6218434044       -0.8943918879
 H         -6.0965842432       -2.6322773745       -2.7933882902
 H         -7.8349229849       -0.8870390367       -2.9163518895
 H         -7.9700991354        0.8567626028       -1.1762833417
 H         -6.3246671857        0.8424071002        0.7061958255
 H         -2.0542026490       -1.5870952485        1.0113263680
 H         -3.8114766849        1.0805223075       -0.7047226443
 H         -2.7386342287        3.2363217634       -1.2518381401
 H         -0.4084509337        3.6634323750       -0.6187972076
 H          1.3291302375        1.7809216651        1.8561009955
 C          1.8186442338        3.3589253142        0.5343420020
 C          3.2827032105        3.6139566800        0.3398409607
 C          2.3294955256        3.8177193632       -0.7973485957
 H          2.1134683431        4.8298427062       -1.1069794851
 H          2.3279432890        3.1035671308       -1.6053992362
 H          3.7193421153        4.4817288613        0.8111062038
 H          3.9401570460        2.7570965843        0.3088583327
 H          1.2812860991        4.0920531716        1.1283558428
