  62
        -98.94220740
 C         -2.5283965645       -0.5429920550       -0.5055817815
 C         -1.5089133680        0.2880184710       -1.0306205946
 C         -1.7078703029        1.7347059112       -0.8686418959
 C         -2.8273686819        2.1874156740       -0.2769846441
 C         -3.1244812545        3.6297690942        0.0097131914
 C         -2.6261431707        4.0322587523        1.4050369913
 C         -1.1843282715        3.6145465861        1.6984284502
 H         -0.9370183459        3.9829771352        2.6967138324
 H         -1.1218515395        2.5239897838        1.7413353550
 C         -0.1491847955        4.1367997636        0.6924258749
 H          0.7138436377        4.5127265788        1.2458173187
 H         -0.5672671161        4.9736154512        0.1308003876
 C          0.3753488968        3.0792206761       -0.2808786355
 H          0.7029948415        2.2004935538        0.2830234652
 H          1.2553195510        3.4885088047       -0.7853235748
 C         -0.6151458923        2.6378484322       -1.3666480715
 H         -1.0351271314        3.5173673426       -1.8586965807
 H         -0.0609671619        2.0595435031       -2.1109660016
 H         -2.7181176574        5.1153972290        1.5046304143
 H         -3.2731638845        3.5662982853        2.1519298457
 H         -2.6524651633        4.2510948774       -0.7487217108
 H         -4.2052748626        3.7742277886       -0.0347169702
 O         -3.8069898594        1.3628956474        0.1744425548
 C         -3.6659319052       -0.0119139444        0.1097212480
 O         -4.6122682499       -0.6482268240        0.6142962556
 O         -0.4769141508       -0.1376926477       -1.6134212688
 C         -2.3837747713       -2.0595304656       -0.4699557459
 C         -1.2869320345       -2.3146408667        0.5347638990
 C         -1.5958679602       -2.3725099875        1.8909449529
 C         -0.5952070083       -2.3922492176        2.8454965611
 C          0.7335984431       -2.3131100846        2.4666123059
 C          1.0477899857       -2.2624737040        1.1166411471
 C          0.0474980899       -2.3114411186        0.1577938869
 H          0.3114752813       -2.2648238907       -0.8865241752
 N          2.3967808276       -2.0724171849        0.7430928324
 S          2.9822843675       -0.5403882507        1.1891242081
 O          4.0388891694       -0.7386557455        2.1558056975
 O          1.8878859808        0.2906315903        1.6329197181
 C          3.6755171689        0.1047273682       -0.3233631561
 C          5.0413593797        0.2858144988       -0.4243542314
 C          5.5650509667        0.7929488242       -1.6029961595
 C          4.7178531920        1.1085580614       -2.6543515127
 C          3.3492621607        0.9178389708       -2.5370718190
 C          2.8161821046        0.4095555660       -1.3624730487
 H          1.7528079021        0.2534749508       -1.2497832104
 H          2.6879732745        1.1596183746       -3.3540035279
 H          5.1244829604        1.5052936326       -3.5712325788
 H          6.6287889135        0.9406530807       -1.6970048302
 H          5.6574405504        0.0277423714        0.4214527578
 H          2.5273471915       -2.1993648702       -0.2522764385
 H          1.5288182955       -2.2544653864        3.1938781298
 H         -0.8526163097       -2.4343258513        3.8934895106
 H         -2.6350418473       -2.3616381312        2.1907026100
 H         -3.3273433863       -2.4488033483       -0.0673492227
 C         -2.1434411957       -2.6660678521       -1.8350021974
 C         -2.2819360931       -4.1483045088       -2.0068613813
 C         -3.3034905211       -3.2262846111       -2.5996036726
 H         -3.3229990015       -3.0975162943       -3.6713464577
 H         -4.2784119282       -3.1767442942       -2.1369508132
 H         -1.6010749875       -4.6572800968       -2.6716695092
 H         -2.5630848544       -4.7252098176       -1.1387087441
 H         -1.3783851666       -2.1582444093       -2.4073007513
