  62
        -98.94585900
 C         -2.1976115538       -0.1378028848       -0.1110401926
 C         -2.0746819835       -1.2018316801       -1.0423214254
 C         -1.4850593555       -2.4459295352       -0.5352311061
 C         -1.1281883435       -2.5363741355        0.7581682361
 C         -0.5432378387       -3.7445732031        1.4373962557
 C          0.9778328798       -3.8767776582        1.2806890138
 C          1.4527319134       -4.2856998897       -0.1137487041
 H          2.5079301331       -4.5522690761       -0.0287857688
 H          0.9154862317       -5.1784489068       -0.4359379590
 C          1.3092973689       -3.1874351990       -1.1763208682
 H          2.2273196169       -3.1197782878       -1.7653942935
 H          1.1862119977       -2.2149413155       -0.6933096575
 C          0.1601365445       -3.3960120804       -2.1633777836
 H          0.1313573837       -2.5269858926       -2.8269121662
 H          0.3566714206       -4.2802409916       -2.7745922260
 C         -1.2215531758       -3.5498812573       -1.5130296132
 H         -1.9782669407       -3.4888764335       -2.2993599895
 H         -1.3007267404       -4.5213895933       -1.0248791357
 H          1.4457799984       -2.9285309150        1.5549954684
 H          1.3134557780       -4.6349311830        1.9917710413
 H         -1.0282769865       -4.6454700080        1.0605956523
 H         -0.7724493556       -3.6450759583        2.5005035178
 O         -1.2857120020       -1.5056320789        1.6272602333
 C         -1.7567869653       -0.2642196068        1.2075158991
 O         -1.7305729421        0.6017214787        2.0999614394
 O         -2.4389439774       -1.1126054686       -2.2455715014
 C         -2.6709278890        1.2061894378       -0.6406716702
 C         -1.6140170828        2.2360361358       -0.3284550312
 C         -1.8006717598        3.3071843420        0.5340253841
 C         -0.7523952119        4.1688748162        0.8075155439
 C          0.4955624343        3.9730964456        0.2446788340
 C          0.6926259253        2.9047820404       -0.6245618301
 C         -0.3668659304        2.0611512479       -0.9173902881
 H         -0.2133709934        1.2367973907       -1.5996512084
 N          1.9457072396        2.6905988579       -1.2252902732
 S          2.6327255771        1.1726579155       -1.3407803768
 O          3.9519146894        1.4188546070       -1.8804443218
 O          1.7821988366        0.2983374161       -2.1052610563
 C          2.7865943547        0.5833228285        0.3346548368
 C          1.6589640147        0.1332327640        0.9904533519
 C          1.7658473329       -0.2791842652        2.3090780385
 C          2.9980640895       -0.2463320946        2.9438740891
 C          4.1245439014        0.2016699282        2.2701202714
 C          4.0194192315        0.6284782326        0.9561314972
 H          4.8668262779        0.9862503645        0.3940938213
 H          5.0814104320        0.2233223229        2.7663139597
 H          3.0767399723       -0.5729518043        3.9687831936
 H          0.8781767612       -0.6111530109        2.8255712169
 H          0.7123878959        0.1132310541        0.4725215413
 H          2.6482994363        3.3703189603       -0.9720175328
 H          1.3136276292        4.6390949033        0.4737155652
 H         -0.9053180792        4.9966751435        1.4830981561
 H         -2.7574003777        3.4507975151        1.0083382632
 H         -2.6894252647        1.0678348081       -1.7352297222
 C         -4.0771441397        1.6195881551       -0.2409469997
 C         -5.1384207401        0.5870965087       -0.0062390257
 C         -4.6401690802        1.4219235735        1.1331789863
 H         -5.2941788507        2.1867806908        1.5264333851
 H         -4.0095081043        0.9622306240        1.8762704084
 H         -6.1311617603        0.7707793743       -0.3889357564
 H         -4.8384631602       -0.4502855672       -0.0481716965
 H         -4.3902084732        2.5175476186       -0.7659358016
