  62
        -98.94468667
 C         -2.0066009728       -0.7538224190        0.5604654926
 C         -1.9588915494       -0.0533405758       -0.6688760399
 C         -2.0101255551        1.4091943336       -0.5704132207
 C         -2.0346979833        1.9975144417        0.6387226050
 C         -2.0385697996        3.4791431510        0.9030733798
 C         -3.4285666264        4.1265958914        0.8299658069
 C         -4.0096882114        4.2630982262       -0.5778679922
 H         -4.8768061668        4.9222007981       -0.5033723981
 H         -3.2804621249        4.7538214479       -1.2230175806
 C         -4.4503789956        2.9366620202       -1.2123502312
 H         -4.5429950588        2.1744491811       -0.4353595708
 H         -5.4379536443        3.0583780510       -1.6626683383
 C         -3.5151307387        2.4157012814       -2.3036209618
 H         -3.5108878731        3.1107284770       -3.1460608225
 H         -3.9017243640        1.4570666850       -2.6582083733
 C         -2.0677019543        2.1993504877       -1.8423183915
 H         -1.5391907187        1.6255124724       -2.6075872534
 H         -1.5617297340        3.1565618594       -1.7166839465
 H         -4.1142913640        3.5486098900        1.4536621411
 H         -3.3447368195        5.1253485995        1.2645378816
 H         -1.6462633393        3.6131918484        1.9137554727
 H         -1.3639042241        3.9733877362        0.2030985573
 O         -2.0412456702        1.2885877031        1.8005913583
 C         -2.0312395216       -0.0967333886        1.7886909645
 O         -2.0492870461       -0.6213008744        2.9229949494
 H          0.4762444806       -1.1826163425        0.9585869131
 C          0.5265820547       -1.9763123930        0.2258335498
 C         -0.6247053446       -2.6807693707       -0.1031526510
 C         -0.5302355899       -3.7103859671       -1.0299614330
 C          0.6816226608       -3.9941356751       -1.6366488611
 C          1.8128678302       -3.2548816958       -1.3455746621
 C          1.7324204004       -2.2367302112       -0.4012721983
 N          2.8631556063       -1.4746963742       -0.0577857045
 S          2.6315614365        0.1427663115        0.3718094024
 O          2.2940530259        0.2048345001        1.7732767969
 O          1.7154264889        0.7872362868       -0.5415782721
 C          4.2851701381        0.7675480598        0.1303784464
 C          4.5988112930        1.4139392666       -1.0502632588
 C          5.8950898541        1.8653880544       -1.2438540030
 C          6.8511713894        1.6605932535       -0.2604630804
 C          6.5212830254        1.0107773672        0.9198316569
 C          5.2268308645        0.5581582828        1.1202666032
 H          4.9199644096        0.0567981444        2.0233624988
 H          7.2662677238        0.8557499129        1.6833589902
 H          7.8590993205        2.0123157613       -0.4136476156
 H          6.1529003065        2.3739974406       -2.1588416161
 H          3.8193046293        1.5564076323       -1.7817199828
 H          3.6210358758       -1.5779583534       -0.7190987217
 H          2.7494512595       -3.4597066598       -1.8413803453
 H          0.7406077580       -4.7912643357       -2.3621741677
 H         -1.4076855461       -4.2799202502       -1.2892332226
 C         -1.9146460418       -2.2694192746        0.5662402873
 H         -1.8659425291       -2.5694077819        1.6238821859
 C         -3.1475258095       -2.8827201781       -0.0638429125
 C         -3.6311095860       -4.2311972894        0.3755665610
 C         -4.3953398159       -3.0001376510        0.7570198600
 H         -5.3456113828       -2.8113589275        0.2807127648
 H         -4.3454040398       -2.6606678804        1.7817248515
 H         -3.0697607397       -4.7362845265        1.1470397401
 H         -4.0619556707       -4.8902776465       -0.3629032353
 H         -3.2576914380       -2.6102464737       -1.1071390360
 O         -1.8804375380       -0.6196350791       -1.7907434027
