  62
        -98.94097706
 C          2.6882281791        1.0157380936       -0.4173107776
 C          2.0908638585       -0.0765163765       -1.0926787977
 C          2.7906475725       -1.3648031819       -0.9742230339
 C          3.9368246288       -1.4364098985       -0.2744980982
 C          4.7195867587       -2.6933372156       -0.0314529162
 C          4.2815219545       -3.3761654403        1.2716392850
 C          2.7672922597       -3.5409671778        1.4062380287
 H          2.5794631752       -4.0642943984        2.3464697381
 H          2.3031753845       -2.5551368361        1.4936985631
 C          2.1058300375       -4.3096730648        0.2539281707
 H          2.8592080459       -4.8787661304       -0.2923471659
 H          1.3976004235       -5.0264687266        0.6748185646
 C          1.3214767641       -3.4347461775       -0.7260182216
 H          0.7212144812       -4.0928737403       -1.3602877064
 H          0.6281872906       -2.7951571206       -0.1715912018
 C          2.1669226105       -2.5515735372       -1.6530268680
 H          2.9285876954       -3.1594384242       -2.1454330842
 H          1.5025104707       -2.1432583352       -2.4199915612
 H          4.7611104942       -4.3550881392        1.3268398672
 H          4.6350581552       -2.7760045520        2.1131959784
 H          4.5817121021       -3.3697909481       -0.8725230624
 H          5.7761322769       -2.4310302967        0.0441263196
 O          4.4945595095       -0.3615742092        0.3386836364
 C          3.8750775049        0.8749584205        0.3077837437
 O          4.4750350953        1.7630673683        0.9456769119
 O          1.0326949030        0.0009026409       -1.7715048941
 C          2.0404870625        2.3931060407       -0.3830082624
 C          0.8246471750        2.2941734171        0.5062965151
 C          0.9544609041        2.5066010294        1.8755177942
 C         -0.1221708655        2.3208863191        2.7233407262
 C         -1.3465351875        1.9077547127        2.2270496163
 C         -1.4820032954        1.6852266301        0.8636319502
 C         -0.4078413124        1.8977554461        0.0104038587
 H         -0.5197803680        1.7013181299       -1.0441647229
 N         -2.7181462633        1.2398160745        0.3449674560
 S         -3.3288225447       -0.1639693640        1.0671151830
 O         -3.9404937599        0.2030467193        2.3205065534
 O         -2.3023022956       -1.1803108876        1.1426521011
 C         -4.5873020868       -0.6246442250       -0.1067949929
 C         -4.2638259228       -1.4922008941       -1.1325937352
 C         -5.2363002989       -1.8187179215       -2.0647704288
 C         -6.5062880087       -1.2717983544       -1.9576300008
 C         -6.8148410624       -0.4012580416       -0.9229188905
 C         -5.8477128234       -0.0713451556        0.0131384395
 H         -6.0416569902        0.5938770893        0.8381025136
 H         -7.8037097549        0.0204342968       -0.8431356604
 H         -7.2603108064       -1.5278360153       -2.6850861314
 H         -4.9990229763       -2.4959816007       -2.8694651585
 H         -3.2650997366       -1.8981528077       -1.1741743412
 H         -2.6484048667        1.0888078710       -0.6540152142
 H         -2.1863867051        1.7304665348        2.8792189160
 H         -0.0061424906        2.4893307963        3.7837043985
 H          1.9185566623        2.7961945662        2.2705074707
 H          2.7670459079        3.0540199895        0.1072248730
 C          1.7454883434        2.9366755591       -1.7652759655
 C          1.4122181215        4.3895070610       -1.9180542816
 C          2.7276224517        3.8664380607       -2.4092802779
 H          2.8876299242        3.7881742601       -3.4741637522
 H          3.6184757135        4.1171298256       -1.8519555805
 H          0.6678424113        4.6746780891       -2.6454620770
 H          1.4093033920        4.9951397449       -1.0243698940
 H          1.2415041387        2.2300294596       -2.4113804144
