  62
        -98.94118393
 C         -2.7425805667       -0.7312374341       -0.3753608721
 C         -2.0389801108        0.2353836539       -1.1350400995
 C         -2.4351399045        1.6325626928       -0.9164152726
 C         -3.4577741155        1.9249323037       -0.0939970064
 C         -4.0020787366        3.2975157011        0.1948937659
 C         -3.2491826668        4.0508021711        1.2999564822
 C         -1.8544255310        4.5450299061        0.9143084725
 H         -1.9141679271        5.1133377412       -0.0143944015
 H         -1.5285993041        5.2321026293        1.6976375910
 C         -0.8095176874        3.4298075328        0.7716498339
 H          0.1097449174        3.7108295155        1.2908077637
 H         -1.1703990144        2.5200452200        1.2582631307
 C         -0.4238289278        3.0930143220       -0.6684882140
 H          0.0868586413        3.9468383401       -1.1200418853
 H          0.2792123243        2.2562117992       -0.6280304473
 C         -1.6052848293        2.6984489467       -1.5651265679
 H         -1.2101312268        2.2921972474       -2.4992726591
 H         -2.2130081844        3.5741118592       -1.7917196892
 H         -3.8558831609        4.9162331881        1.5763346975
 H         -3.1741040389        3.4028234575        2.1764561024
 H         -3.9982403750        3.8918506341       -0.7191494063
 H         -5.0364444027        3.1592605414        0.5170092128
 O         -4.1528849935        0.9631277948        0.5694007334
 C         -3.7819933467       -0.3675725849        0.4870092514
 O         -4.4595771285       -1.1291729853        1.2063976383
 O         -1.1289484887       -0.0259693506       -1.9664765379
 C         -2.3834428636       -2.2114742498       -0.3871135895
 C         -1.1170911987       -2.3899653144        0.4161593185
 C         -1.1665920746       -2.8650845766        1.7220696759
 C         -0.0188973804       -2.9316975808        2.4929539775
 C          1.1984845997       -2.5126194320        1.9851801484
 C          1.2549487649       -2.0334537794        0.6836643986
 C          0.1102598382       -1.9960834221       -0.0971582376
 H          0.1622747352       -1.5973501126       -1.0987499033
 N          2.4834938375       -1.5545115818        0.1632776552
 S          3.0172473951       -0.1581725035        0.9639533786
 O          3.5433309322       -0.5536679622        2.2468093247
 O          1.9687865023        0.8375493071        0.9907220353
 C          4.3456521361        0.3670214831       -0.1011212643
 C          4.0874952253        1.3024991243       -1.0845811793
 C          5.1160599964        1.6859652549       -1.9308294842
 C          6.3763096983        1.1266982666       -1.7820087239
 C          6.6190766110        0.1874310241       -0.7907225589
 C          5.5954706071       -0.1994711194        0.0594070409
 H          5.7375230921       -0.9187186984        0.8487029129
 H          7.6007919980       -0.2433276959       -0.6779661435
 H          7.1744655031        1.4272791906       -2.4421993757
 H          4.9295321036        2.4171982818       -2.7008751887
 H          3.0939039578        1.7162718837       -1.1599062574
 H          2.3744623005       -1.3226290848       -0.8175039699
 H          2.0927327855       -2.5219964457        2.5868987139
 H         -0.0748639489       -3.3012448756        3.5060122467
 H         -2.1202882863       -3.1567594107        2.1391939020
 H         -3.1970501600       -2.7206393821        0.1457709427
 C         -2.2844968607       -2.7915038225       -1.7831893011
 C         -2.3390336741       -4.2789471761       -1.9540038983
 C         -3.4930245011       -3.4308018703       -2.3950724787
 H         -3.6642340975       -3.2993432192       -3.4529092079
 H         -4.3986558448       -3.4532857791       -1.8063209559
 H         -1.7167925537       -4.7340229861       -2.7090961534
 H         -2.4619084491       -4.8783389217       -1.0645345350
 H         -1.6374246136       -2.2298430998       -2.4432051200
