  62
        -98.93971252
 C         -1.7594060793       -1.3623151833        0.3823315151
 C         -1.6442736247       -0.2040115316       -0.4205600032
 C         -2.4751242624        0.9513372244       -0.0280169951
 C         -3.2646570686        0.8615176913        1.0585097304
 C         -4.1733381832        1.8775614339        1.7194955325
 C         -4.5489426455        3.1720071686        1.0033283607
 C         -5.4520777107        2.9861383119       -0.2156562650
 H         -6.4394076172        2.6693928890        0.1299080174
 H         -5.5674221232        3.9546519158       -0.7070449484
 C         -4.9718504595        1.9613889865       -1.2401271712
 H         -4.9391346119        0.9712712839       -0.7809033904
 H         -5.7131178095        1.9189485138       -2.0427095236
 C         -3.6158167910        2.2598548497       -1.8757666428
 H         -3.4705062366        1.5446677111       -2.6896480883
 H         -3.6265091276        3.2619774644       -2.3087420205
 C         -2.4025233718        2.1444115263       -0.9369751478
 H         -1.5136954200        1.9936107444       -1.5565247225
 H         -2.2554726577        3.0582350153       -0.3656557496
 H         -3.6549920877        3.7281492821        0.7367643397
 H         -5.0949833016        3.7815582643        1.7285519726
 H         -5.0876039311        1.3348678571        1.9805471878
 H         -3.6889887937        2.1345392263        2.6684170456
 O         -3.3147640592       -0.2714666662        1.8212909872
 C         -2.5827888266       -1.4029254879        1.5042374428
 O         -2.7417064342       -2.3574072362        2.2928502284
 H          0.4002704135       -0.9918150627        1.6752526820
 C          1.0528487914       -1.4248272454        0.9266003251
 C          0.5176487173       -2.2882605798       -0.0206095994
 C          1.3707028984       -2.8360749877       -0.9703865524
 C          2.7190967022       -2.5224329191       -0.9686097211
 C          3.2454491481       -1.6545062332       -0.0301455383
 C          2.3996338926       -1.0969653258        0.9205014414
 N          2.9159597468       -0.1965862718        1.8674967602
 S          3.9919471265        0.9699917402        1.3356702868
 O          5.3193276504        0.4079189767        1.2865125726
 O          3.8168554934        2.0833670276        2.2427432570
 C          3.4692496524        1.4166276941       -0.3107340662
 C          2.1896791781        1.9043824804       -0.4857625280
 C          1.7728361096        2.2472546376       -1.7609089029
 C          2.6364344413        2.0945620698       -2.8343649010
 C          3.9199303399        1.6081277100       -2.6418337624
 C          4.3431424823        1.2649289707       -1.3681081707
 H          5.3314679071        0.8816810297       -1.1723953094
 H          4.5895607302        1.4921351709       -3.4787499435
 H          2.3033760986        2.3567371439       -3.8261223348
 H          0.7725070061        2.6192515894       -1.9121441113
 H          1.5353475413        2.0099426109        0.3653408644
 H          2.2175446536        0.2025401755        2.4767828003
 H          4.2935789000       -1.4037361866       -0.0128176019
 H          3.3695477827       -2.9576633637       -1.7115305589
 H          0.9788498936       -3.5086125095       -1.7154008923
 C         -0.9581652815       -2.6031188077        0.0371344843
 H         -1.1227933680       -3.3117979208        0.8626923817
 C         -1.4877486116       -3.2165890359       -1.2438384606
 C         -1.4524349741       -4.7004493665       -1.4487529122
 C         -2.7572827733       -4.0104063279       -1.1909981133
 H         -3.4620140144       -3.9136094136       -2.0032296055
 H         -3.2222894951       -4.1354209563       -0.2234606581
 H         -1.2643708494       -5.0802665979       -2.4417325188
 H         -1.0371495736       -5.3063587727       -0.6575725892
 H         -1.3339655916       -2.5752242962       -2.1040355874
 O         -0.8772635967       -0.1265182181       -1.4134804907
