  62
        -98.94406398
 C          2.2165365501        1.2308085528       -0.1466721075
 C          2.6236491635        0.1321967016       -0.9410935735
 C          4.0039085327       -0.3238569311       -0.7325142140
 C          4.7985811087        0.3202726921        0.1414024462
 C          6.2363125437       -0.0082885735        0.4397423392
 C          6.4191729898       -1.1214562900        1.4804024749
 C          6.0768192126       -2.5299206324        0.9930296959
 H          6.6110410673       -2.7318014233        0.0640893254
 H          6.4527149255       -3.2287415948        1.7430145529
 C          4.5760469890       -2.7830280134        0.7914912644
 H          4.0024005815       -2.0145282218        1.3147300913
 H          4.3047194884       -3.7423312173        1.2379321523
 C          4.1294902269       -2.8225381316       -0.6701749778
 H          4.5931775129       -3.6748456522       -1.1720417574
 H          3.0459202247       -2.9665379207       -0.6932887828
 C          4.4550890899       -1.5510238407       -1.4649639399
 H          5.5233401653       -1.5010635053       -1.6749492482
 H          3.9123043443       -1.5912215034       -2.4125757556
 H          5.8136651524       -0.8824370579        2.3576801197
 H          7.4674912398       -1.1112319898        1.7875093646
 H          6.7486047369       -0.2830733557       -0.4826746542
 H          6.6892152698        0.9054738038        0.8305177790
 O          4.3761604533        1.3920674508        0.8637564269
 C          3.0742175088        1.8543805079        0.7595288139
 O          2.8062684206        2.8132401114        1.5115521714
 H         -1.2722146406        0.7571055488       -1.7921528061
 C         -1.1744310283        0.2678705989       -0.8360322940
 C         -0.1803220848        0.6594049460        0.0455371173
 C         -0.0862437745        0.0077451397        1.2729030745
 C         -0.9473975938       -1.0227468687        1.5961311965
 C         -1.9253573785       -1.4264213413        0.7034743497
 C         -2.0352023999       -0.7761089339       -0.5175453260
 N         -3.0298269075       -1.1730211630       -1.4245022904
 S         -4.5651402308       -1.4843878604       -0.8437270334
 O         -4.6142277889       -2.8039679956       -0.2651264768
 O         -5.4466558869       -1.2548125864       -1.9667612101
 C         -4.8373249633       -0.2586422059        0.4247155764
 C         -5.0725338129       -0.6534869480        1.7256407526
 C         -5.2541251058        0.3165287899        2.6986293485
 C         -5.1938214132        1.6580178933        2.3556365065
 C         -4.9590719678        2.0391479703        1.0431643926
 C         -4.7786473511        1.0738209767        0.0663700531
 H         -4.6016822702        1.3382438106       -0.9636405165
 H         -4.9137454142        3.0835222803        0.7790665223
 H         -5.3309130182        2.4120546673        3.1146022323
 H         -5.4386883940        0.0231159086        3.7195015021
 H         -5.1094883724       -1.7072088188        1.9495835960
 H         -3.0501900494       -0.6404068360       -2.2810263483
 H         -2.5920233032       -2.2426885438        0.9293882546
 H         -0.8552186946       -1.5219883985        2.5488181238
 H          0.6822628924        0.3187781099        1.9679104595
 C          0.7996026821        1.7657297982       -0.2596795973
 H          0.7021821657        2.5327192047        0.5217407216
 C          0.5931311807        2.4184412522       -1.6102422459
 C         -0.4502543659        3.4810377124       -1.7781822506
 C          1.0028217487        3.8476964583       -1.7919754721
 H          1.4543324946        4.1391879011       -2.7284942926
 H          1.4133581953        4.3586012384       -0.9331846579
 H         -0.9966192916        3.5278339280       -2.7083133911
 H         -1.0308100088        3.7511075421       -0.9092570926
 H          0.7754766922        1.7399988425       -2.4359237524
 O          1.8806787134       -0.4359884287       -1.7830770394
