  62
        -98.93403929
 C         -2.0929933228       -0.7785746395       -0.2157665530
 C         -3.2740686864       -0.9094079133        0.5554781986
 C         -4.0585768267        0.3151405076        0.7845439414
 C         -3.6054500676        1.4786491988        0.2871138293
 C         -4.2626234074        2.8289658940        0.3690036820
 C         -5.1270269395        3.0904715236       -0.8761840291
 C         -6.5617867765        2.5721600829       -0.7848436793
 H         -7.1213186486        3.1896386150       -0.0791426141
 H         -7.0173912093        2.7039461580       -1.7688794786
 C         -6.7023267952        1.1052409121       -0.3702034960
 H         -5.9574718773        0.5027593736       -0.8932426961
 H         -7.6850758572        0.7583286233       -0.6952113640
 C         -6.5762010231        0.8916238576        1.1455479598
 H         -7.4287200812        0.3089237388        1.5003957681
 H         -6.6313831301        1.8574514794        1.6472323712
 C         -5.3125660710        0.1459767750        1.5988245127
 H         -5.0917603504        0.4150430547        2.6371381824
 H         -5.5028078948       -0.9317839439        1.5909231668
 H         -5.1666689222        4.1669370598       -1.0548628513
 H         -4.6235402499        2.6359196967       -1.7334246742
 H         -4.8468291415        2.9185946366        1.2800285743
 H         -3.4556125658        3.5643687806        0.3935574989
 O         -2.4558974065        1.5660254782       -0.4370560896
 C         -1.6724681560        0.4556730723       -0.7121227704
 O         -0.6668017956        0.7100519444       -1.4018631307
 O         -3.6651313879       -2.0110245518        1.0279827535
 C         -1.2614463128       -2.0316039581       -0.4413582106
 C         -0.0808277731       -1.9940000417        0.4993031534
 C         -0.2323590504       -2.4994433050        1.7881698625
 C          0.8108720928       -2.4504054030        2.6926854422
 C          2.0232540471       -1.8914899911        2.3304380197
 C          2.1849691496       -1.3813377777        1.0471554707
 C          1.1373258915       -1.4368660224        0.1375313871
 H          1.2740978849       -1.0094313063       -0.8420056179
 N          3.4240322500       -0.8423827192        0.6539218604
 S          3.4369953693        0.5549917015       -0.2992048224
 O          2.5870635475        1.5640911587        0.2921031041
 O          3.1831514215        0.1898877212       -1.6686741066
 C          5.1509996941        1.0227024784       -0.1237586069
 C          5.4984760770        2.0217171859        0.7654774246
 C          6.8358669590        2.3564202004        0.9105408885
 C          7.7987538092        1.6874235137        0.1702793184
 C          7.4351411840        0.6868611325       -0.7189479882
 C          6.0997225466        0.3489836398       -0.8697367329
 H          5.7682410562       -0.4138500579       -1.5545433888
 H          8.1861054675        0.1706735229       -1.2949150601
 H          8.8386097202        1.9496805313        0.2848248711
 H          7.1202892990        3.1364094261        1.5983213155
 H          4.7139545042        2.5193616756        1.3128703938
 H          4.0530161982       -0.7302582939        1.4389268744
 H          2.8402554396       -1.8499854219        3.0350267536
 H          0.6790365341       -2.8458878353        3.6884847923
 H         -1.1873791099       -2.9172926613        2.0738082733
 H         -1.9086132688       -2.8627725932       -0.1277930303
 C         -0.8735052472       -2.2458472914       -1.8882294057
 C         -0.4061344371       -3.6034550406       -2.3176795231
 C         -1.7450991847       -3.0971013866       -2.7604133438
 H         -1.8744739838       -2.8103920587       -3.7932856656
 H         -2.6276777387       -3.5310706657       -2.3134240715
 H          0.3885467594       -3.6659798665       -3.0451454095
 H         -0.3808337811       -4.3805413842       -1.5686421400
 H         -0.4073882890       -1.3829982503       -2.3472321732
