  62
        -98.94178303
 C         -2.5375292405       -0.2870590377        0.0267775386
 C         -2.2865587509       -1.3357751376       -0.8846054518
 C         -1.5997343415       -2.5246567681       -0.3504277621
 C         -1.2532654417       -2.5446574087        0.9487118780
 C         -0.4672700123       -3.5994718693        1.6782448777
 C          1.0354070678       -3.2685564000        1.6367939981
 C          1.7875314077       -3.8603568899        0.4464077880
 H          2.8130378579       -3.4861747404        0.4925382282
 H          1.8250403572       -4.9478028400        0.5473903176
 C          1.2053141381       -3.5124980292       -0.9255696820
 H          1.9895280681       -3.6650190693       -1.6704506219
 H          0.9460839486       -2.4513781690       -0.9552314117
 C         -0.0107962023       -4.3716905585       -1.3025399825
 H         -0.0796760528       -5.2158093187       -0.6164732628
 H          0.1406268977       -4.7927372882       -2.2990007726
 C         -1.3506199519       -3.6270882078       -1.3445376924
 H         -1.4638055915       -3.1459661574       -2.3216027723
 H         -2.1649226023       -4.3559022075       -1.2607731828
 H          1.1413957583       -2.1799632500        1.6277612984
 H          1.5022416775       -3.6389464605        2.5521656980
 H         -0.8034876225       -3.5715963095        2.7168067677
 H         -0.6668826927       -4.5865478590        1.2714871474
 O         -1.5449472014       -1.5243369488        1.8020184283
 C         -2.1521093108       -0.3637007984        1.3651039386
 O         -2.3139244405        0.5004890314        2.2490635689
 O         -2.6118162007       -1.2756365370       -2.1039303518
 C         -3.1173057099        1.0206706127       -0.4838324511
 C         -2.1002510494        2.1105974721       -0.2430603306
 C         -2.4034607789        3.3565923321        0.2887854398
 C         -1.3931358785        4.2668122015        0.5515464603
 C         -0.0684679486        3.9495865910        0.3142069304
 C          0.2419193209        2.7127034710       -0.2408413300
 C         -0.7746583595        1.8246596216       -0.5436893505
 H         -0.5221158899        0.8687796017       -0.9797599908
 N          1.5715337108        2.3379953305       -0.5075972800
 S          1.9559041600        0.7008779903       -0.3124312105
 O          1.6274767098        0.0065896008       -1.5322664707
 O          1.3733096996        0.1856780001        0.9050946093
 C          3.7283712900        0.8081981994       -0.1504814602
 C          4.2970123598        0.7782496687        1.1085742099
 C          5.6729428598        0.8992814680        1.2260504301
 C          6.4516593301        1.0515199780        0.0887185403
 C          5.8666238403        1.0778259987       -1.1687541498
 C          4.4918526902        0.9552157794       -1.2932297600
 H          3.9922315404        0.9597444500       -2.2478413701
 H          6.4755235204        1.1926451488       -2.0508722197
 H          7.5216870501        1.1474198875        0.1832122005
 H          6.1301258697        0.8747480575        2.2020561302
 H          3.6507493696        0.6511868287        1.9625994698
 H          2.2460731010        2.9356528700       -0.0489989897
 H          0.7183328317        4.6474417206        0.5570397107
 H         -1.6403454081        5.2295059915        0.9729309306
 H         -3.4266307788        3.6082915125        0.5155198598
 H         -3.2397684298        0.8872452931       -1.5693979611
 C         -4.4696647598        1.3031475131        0.1336518088
 C         -5.4886547493        2.1083827439       -0.6146504910
 C         -5.6813117400        0.6329891439       -0.4390408916
 H         -6.4469642403        0.2871211840        0.2388887882
 H         -5.5318216802       -0.0103246459       -1.2939588918
 H         -6.1279165691        2.7763941440       -0.0574885609
 H         -5.2174906490        2.4695298741       -1.5951603109
 H         -4.4175524799        1.4098993327        1.2112995489
