  62
        -98.94118308
 C          1.8983687586        0.9105571149        0.2463302094
 C          2.3185426146       -0.0728973375        1.1757718304
 C          2.5537805563       -1.4159748858        0.6370983572
 C          2.3002304950       -1.6654485826       -0.6600180329
 C          2.4496696124       -2.9936913689       -1.3517504225
 C          3.8778884805       -3.2979504173       -1.8250195687
 C          4.8732840756       -3.6369951696       -0.7146480100
 H          4.4598610741       -4.4274848560       -0.0877137021
 H          5.7673170154       -4.0363134420       -1.1974068970
 C          5.2769418469       -2.4420451058        0.1602682015
 H          5.0116393352       -1.5126802240       -0.3491280874
 H          6.3610194287       -2.4367081438        0.2928659580
 C          4.6501514014       -2.4371011135        1.5546521880
 H          5.0096810815       -3.2984386756        2.1216763975
 H          4.9748144851       -1.5319488744        2.0742195215
 C          3.1156883057       -2.4582373174        1.5563480316
 H          2.7508132317       -3.4468325425        1.2774030621
 H          2.7671414290       -2.2301457592        2.5668436874
 H          4.2452292390       -2.4420609284       -2.3958189385
 H          3.8196166499       -4.1510948619       -2.5047226182
 H          2.1048350295       -3.7889007752       -0.6897758765
 H          1.7929437087       -2.9613105618       -2.2239786201
 O          1.8456515524       -0.7095875350       -1.5113316432
 C          1.6293006075        0.5943248412       -1.0869764089
 O          1.2159106317        1.3513849781       -1.9855309097
 H         -0.6377909247        0.9354096664        1.0545340052
 C         -0.8181545457        1.8661342797        0.5341752898
 C          0.2405619646        2.7358394411        0.3003482020
 C         -0.0129425579        3.9267522530       -0.3656692826
 C         -1.2919397884        4.2194045808       -0.8079238708
 C         -2.3326548760        3.3317610806       -0.6114077303
 C         -2.0901449312        2.1405906501        0.0651088569
 N         -3.1274356781        1.2189032217        0.2996272673
 S         -2.7440712039       -0.4256503186        0.3129337639
 O         -2.2284928100       -0.7690440610        1.6159961418
 O         -1.9116249968       -0.7682057332       -0.8185006184
 C         -4.3736327855       -1.1245022397        0.1171248274
 C         -4.8036788697       -1.4981974266       -1.1420252208
 C         -6.0841416567       -2.0083082329       -1.2894364480
 C         -6.9093830792       -2.1318984393       -0.1817728729
 C         -6.4635186575       -1.7532628911        1.0759326098
 C         -5.1841019405       -1.2435353850        1.2303717768
 H         -4.7892429353       -0.9442689097        2.1871603265
 H         -7.1066293627       -1.8535620969        1.9352376401
 H         -7.9053061411       -2.5286636942       -0.2993481497
 H         -6.4316286254       -2.3061436993       -2.2655474532
 H         -4.1228157186       -1.3910639383       -1.9715306761
 H         -3.9421588402        1.3992690762       -0.2717648212
 H         -3.3225994155        3.5511627506       -0.9815750900
 H         -1.4754875086        5.1446993577       -1.3328530567
 H          0.7936438669        4.6126240999       -0.5658953148
 C          1.6040318151        2.3026797195        0.7777904939
 H          1.5489652708        2.1659960295        1.8719765584
 C          2.6991961223        3.3273052214        0.5250840036
 C          4.1189264954        2.8998919814        0.3057171181
 C          3.3363596349        3.5039698792       -0.8194309018
 H          3.5900504912        4.5046478286       -1.1376339480
 H          2.9980243734        2.8622462157       -1.6174255375
 H          4.9063605682        3.4825264155        0.7598435157
 H          4.3212649997        1.8388383135        0.2758650382
 H          2.5576168304        4.2255417535        1.1183911010
 O          2.4835777270        0.1613189700        2.4043112321
