  62
        -98.93389773
 C         -2.4349804297       -0.3673698215        0.1559884306
 C         -3.5726711705       -0.4012522411        0.9931733427
 C         -4.7885529193        0.2549932888        0.4819731209
 C         -4.7608022792        0.8438031026       -0.7285452043
 C         -5.8210033924        1.6195525513       -1.4825621111
 C         -7.2848255341        1.5654989708       -1.0526929027
 C         -7.9570279609        0.2055959263       -1.2384084615
 H         -8.0614453992        0.0131453558       -2.3091508398
 H         -8.9606667059        0.2599462625       -0.8110076728
 C         -7.2202331072       -0.9833485799       -0.6267710385
 H         -6.2538515788       -1.1089974821       -1.1192911190
 H         -7.8064987215       -1.8825996962       -0.8345146158
 C         -7.0015085563       -0.9106646500        0.8831261329
 H         -6.6167895823       -1.8815652513        1.2067369920
 H         -7.9563399605       -0.7454189866        1.3859491794
 C         -6.0052761670        0.1618202430        1.3572241458
 H         -5.6467446342       -0.1260591869        2.3499434623
 H         -6.4846645133        1.1331168105        1.4535982883
 H         -7.8187296114        2.2852094207       -1.6792921534
 H         -7.3892125926        1.9051028133       -0.0264510825
 H         -5.7420847772        1.2935301367       -2.5245004424
 H         -5.4930670690        2.6648833918       -1.4624284301
 O         -3.6316895916        0.8593139104       -1.4970609092
 C         -2.4519098758        0.2603504338       -1.0877498469
 O         -1.5174967008        0.3524569554       -1.9057500567
 O         -3.5726812754       -0.9481803122        2.1295279986
 C         -1.1519347571       -1.0259351248        0.6264857730
 C         -0.0378669166       -0.0100252395        0.6931674845
 C         -0.2718801253        1.2009338003        1.3400580058
 C          0.7187857088        2.1591038020        1.4286396687
 C          1.9681891332        1.9320135593        0.8783671145
 C          2.2188043048        0.7226064199        0.2465712719
 C          1.2211914119       -0.2429378128        0.1640383125
 H          1.4319497387       -1.1774887917       -0.3321815249
 N          3.4819010791        0.4844853809       -0.3217057889
 S          4.8405177847        0.9978615858        0.5395487893
 O          4.7099683131        0.6366109981        1.9334211658
 O          5.0531684837        2.3980921542        0.2704976086
 C          6.1200904923        0.0316134580       -0.2378006837
 C          6.5281826367       -1.1497366503        0.3520931857
 C          7.5078134881       -1.9064280020       -0.2714571625
 C          8.0569947202       -1.4728282275       -1.4687837865
 C          7.6364208009       -0.2850978932       -2.0488547075
 C          6.6582132045        0.4770621044       -1.4303119671
 H          6.3065882629        1.4100031207       -1.8389869091
 H          8.0675057057        0.0492944987       -2.9786730126
 H          8.8198752049       -2.0630211346       -1.9515026534
 H          7.8389368105       -2.8286799287        0.1781380844
 H          6.0801193067       -1.4430145712        1.2879565905
 H          3.5851646503       -0.4668871071       -0.6468394482
 H          2.7504152889        2.6716046588        0.9384754202
 H          0.5187726544        3.0947806582        1.9296695430
 H         -1.2472893431        1.3827640315        1.7711019699
 H         -1.3590512288       -1.3691860358        1.6513463805
 C         -0.8349584946       -2.2302211018       -0.2352322211
 C         -0.0698718089       -3.3879853350        0.3316174497
 C         -1.5349360948       -3.5242936612        0.0482751869
 H         -1.8463787950       -4.1357345025       -0.7852757648
 H         -2.2199448610       -3.5434969054        0.8832773127
 H          0.6236106442       -3.9120476713       -0.3089297543
 H          0.2425066614       -3.3234726028        1.3630338023
 H         -0.6744839226       -1.9656022019       -1.2746172682
