  62
        -98.93968876
 C          2.1161232749        1.3669860205        0.6323211705
 C          1.9909256099        0.0895963947        1.2382904744
 C          3.0456481456       -0.8813466203        0.9354436015
 C          4.0676458966       -0.5228418212        0.1377161399
 C          5.2330074537       -1.3911267315       -0.2520068918
 C          4.9497001850       -2.3120870737       -1.4468156841
 C          4.0161808674       -3.4879998516       -1.1559372282
 H          4.0800057721       -4.1646041940       -2.0105355662
 H          4.3800062264       -4.0314439872       -0.2833913743
 C          2.5468226143       -3.0949751360       -0.9460372134
 H          2.3789086382       -2.0888650848       -1.3373433102
 H          1.9065923015       -3.7708714004       -1.5171426834
 C          2.0763886782       -3.1448390564        0.5078280924
 H          2.1036805132       -4.1762675831        0.8659506617
 H          1.0414257847       -2.7960417405        0.5437911663
 C          2.8966171962       -2.2739683188        1.4680341226
 H          2.3596388323       -2.2112581021        2.4175142158
 H          3.8739925082       -2.7217519076        1.6463190143
 H          4.5362565021       -1.7109014404       -2.2600072742
 H          5.9088404483       -2.7117760050       -1.7844016591
 H          6.0475944742       -0.7161256569       -0.5233954719
 H          5.5477260799       -1.9887325712        0.6039641866
 O          4.1636380131        0.7157829525       -0.4100562368
 C          3.1757973883        1.6789089266       -0.2198307138
 O          3.3828192060        2.7316275845       -0.8496126520
 H         -1.5767712986        1.8132191512        1.5864217744
 C         -1.4255598003        1.7685168102        0.5166942963
 C         -0.1671164275        2.0265873326       -0.0038757607
 C          0.0192571999        1.9368013163       -1.3799516954
 C         -1.0376343429        1.6097490623       -2.2094514160
 C         -2.2946444703        1.3572266898       -1.6868009887
 C         -2.4875458297        1.4294460076       -0.3136177629
 N         -3.7588403080        1.1801007957        0.2322141804
 S         -4.5991203167       -0.2011805469       -0.1994882411
 O         -4.9571202951       -0.1253899489       -1.5929273444
 O         -5.6932533576       -0.2765281183        0.7406105063
 C         -3.4692324652       -1.5532665878        0.0712298692
 C         -3.4057797645       -2.1127833074        1.3319787899
 C         -2.5128517610       -3.1458079729        1.5638481218
 C         -1.6958206116       -3.5935664933        0.5373322434
 C         -1.7645933493       -3.0146652259       -0.7203903186
 C         -2.6591443875       -1.9839538903       -0.9599407700
 H         -2.7478243800       -1.5182884412       -1.9275795592
 H         -1.1231452120       -3.3618199481       -1.5147037540
 H         -1.0021203513       -4.3994700061        0.7185047530
 H         -2.4535813540       -3.5958305006        2.5417587279
 H         -4.0663794590       -1.7436563751        2.1000557745
 H         -3.7985036153        1.3044540388        1.2336494539
 H         -3.1258340043        1.0991675463       -2.3226916942
 H         -0.8825478673        1.5494122273       -3.2763186726
 H          1.0021928224        2.1244149495       -1.7876574971
 C          0.9863317790        2.3414833412        0.9144777728
 H          0.6596557181        2.1056584585        1.9402407959
 C          1.3942461388        3.8054245203        0.8982005029
 C          0.9668601476        4.7741850401       -0.1589330330
 C          0.3770785003        4.8621502848        1.2147235899
 H          0.6636332434        5.6839581957        1.8531194993
 H         -0.6478365746        4.5439417432        1.3357958868
 H          1.6826416727        5.5197913519       -0.4693953302
 H          0.3385902578        4.4171501522       -0.9596428994
 H          2.3892155013        3.9526376963        1.3043025736
 O          1.0374021718       -0.2170147977        2.0029803655
