  62
        -98.93930690
 C          2.0320738731        0.8816345267        0.0239226310
 C          2.3118603123       -0.1033961590        0.9958623817
 C          2.3404879493       -1.5006942786        0.5326220253
 C          2.0956394375       -1.7698603385       -0.7635934931
 C          1.9852159723       -3.0868613555       -1.5043043892
 C          2.4773630791       -4.3858806129       -0.8714878681
 C          3.9916847661       -4.4715261649       -0.6834337008
 H          4.2159768331       -5.3905941668       -0.1379414894
 H          4.4597342904       -4.5446342152       -1.6681257844
 C          4.6316076102       -3.2924614511        0.0447755889
 H          5.7068250354       -3.4805199702        0.1058014712
 H          4.4958724972       -2.3816520526       -0.5418454399
 C          4.1221650574       -3.0472702994        1.4636313013
 H          4.7697917105       -2.2944637769        1.9206289159
 H          4.2091550985       -3.9639556915        2.0499073954
 C          2.6749707168       -2.5346151093        1.5693416085
 H          1.9580532532       -3.3522465354        1.5369945549
 H          2.5590718284       -2.0413192635        2.5391211148
 H          2.1820065865       -5.1919403612       -1.5487221815
 H          1.9641864886       -4.5618574550        0.0693863226
 H          2.4989403363       -2.9355282542       -2.4592292272
 H          0.9201336123       -3.1943741911       -1.7406670665
 O          1.8409884099       -0.7811660047       -1.6703347387
 C          1.7776677378        0.5513075256       -1.3057752411
 O          1.5119239677        1.3296406110       -2.2424187424
 O          2.5178001354        0.1712098943        2.2108989327
 C          1.8991943556        2.3319503471        0.4502131753
 C          0.5019534478        2.8103094018        0.1371299018
 C          0.2203917051        4.0456915843       -0.4310709441
 C         -1.0849101670        4.3938584670       -0.7345074469
 C         -2.1280961527        3.5196769742       -0.4930945105
 C         -1.8582555703        2.2891914219        0.0966114865
 C         -0.5559145453        1.9573041571        0.4264299454
 H         -0.3594424313        0.9974208649        0.8830936045
 N         -2.8923379939        1.3784542168        0.3805308867
 S         -2.5499290629       -0.2716688495        0.2546149889
 O         -1.9328105264       -0.7118802325        1.4818462855
 O         -1.8275842865       -0.5518368365       -0.9660684114
 C         -4.2068356186       -0.9260994772        0.1597441107
 C         -4.7339197501       -1.2719671425       -1.0699454202
 C         -6.0340259248       -1.7492833882       -1.1319395538
 C         -6.7817407943       -1.8680336163        0.0298775740
 C         -6.2388309483       -1.5172559109        1.2572472239
 C         -4.9392555091       -1.0411946647        1.3264436190
 H         -4.4702260406       -0.7653120610        2.2563991433
 H         -6.8220471830       -1.6133770284        2.1587148254
 H         -7.7930524673       -2.2391748704       -0.0213929959
 H         -6.4568207503       -2.0258622949       -2.0842875038
 H         -4.1114060810       -1.1685067904       -1.9444862049
 H         -3.7552344091        1.6104922996       -0.0932445940
 H         -3.1411410523        3.7825603808       -0.7570416346
 H         -1.2896474081        5.3534575470       -1.1845328597
 H          1.0237991395        4.7294984243       -0.6511026280
 H          2.0298333943        2.3313694472        1.5431999982
 C          2.9857438188        3.1821020179       -0.1736255083
 C          3.4951884728        4.4007087548        0.5350199639
 C          4.3519397884        3.1751853564        0.4419286956
 H          5.2113820024        3.1915183306       -0.2112409836
 H          4.4897610824        2.5757639793        1.3300734558
 H          3.7710381737        5.2619193990       -0.0545542709
 H          3.0584825616        4.6404604640        1.4926677436
 H          2.9234061735        3.2026157510       -1.2559827514
