  62
        -98.94172292
 C          2.1232129410        0.8157797509        0.2602460846
 C          2.9901205119        0.2387130302        1.2228091533
 C          3.7757893006       -0.9167773911        0.7761822795
 C          3.5852030395       -1.4130275493       -0.4593125739
 C          4.2905262629       -2.6013202045       -1.0546467572
 C          5.6613303727       -2.2729170442       -1.6624194990
 C          6.7689446604       -1.9782145923       -0.6498969174
 H          6.8149924866       -2.7857939569        0.0813524730
 H          7.7127197878       -1.9813129348       -1.1986858861
 C          6.6238255472       -0.6324276090        0.0742956750
 H          5.9250311287        0.0024454576       -0.4756504300
 H          7.5864577626       -0.1164028111        0.0808060607
 C          6.1580439159       -0.7408362864        1.5263910675
 H          6.0540952870        0.2697860942        1.9297792485
 H          6.9152321137       -1.2620815956        2.1160512752
 C          4.8163257736       -1.4632732206        1.7063403003
 H          4.9412225019       -2.5347350731        1.5510731099
 H          4.4693343970       -1.2948317438        2.7288217166
 H          5.5485061647       -1.4218736150       -2.3381352475
 H          5.9656141991       -3.1342293641       -2.2615477396
 H          3.6427763068       -2.9809991892       -1.8480280782
 H          4.4031574878       -3.3780673235       -0.2974857586
 O          2.6806477363       -0.8849750795       -1.3253308439
 C          1.9428707527        0.2496666670       -1.0030871761
 O          1.1800421996        0.6255018660       -1.9118112727
 O          3.0959107686        0.6656382272        2.4036176409
 C          1.3248126095        2.0375663271        0.6786251496
 C         -0.1255956624        1.8666967057        0.3024714230
 C         -0.8202816946        2.7416088921       -0.5211582601
 C         -2.1486202195        2.5050911707       -0.8301686729
 C         -2.8119909022        1.4024326126       -0.3252798310
 C         -2.1244910128        0.5158748576        0.4935430266
 C         -0.7967200976        0.7589384101        0.8068303049
 H         -0.2591400023        0.0635873226        1.4412060152
 N         -2.7898855616       -0.6051840627        1.0208025652
 S         -3.6864280343       -1.5710993330       -0.0206284771
 O         -3.7237810019       -2.8697093664        0.6178239450
 O         -3.1720547927       -1.5324826322       -1.3696085672
 C         -5.3147971542       -0.8520725157        0.0386620759
 C         -5.9302589860       -0.7348473013        1.2695967324
 C         -7.1974498600       -0.1779455395        1.3336011286
 C         -7.8254200353        0.2471823398        0.1722394541
 C         -7.1963502117        0.1177638867       -1.0564713444
 C         -5.9281198495       -0.4377799948       -1.1273137547
 H         -5.3975928301       -0.5538740761       -2.0592553871
 H         -7.6862663577        0.4473990955       -1.9585880982
 H         -8.8112778481        0.6814428716        0.2248470716
 H         -7.6902145440       -0.0766571986        2.2871145343
 H         -5.4093629419       -1.0814556398        2.1464071068
 H         -2.2080614148       -1.1766660232        1.6164624845
 H         -3.8440956939        1.2127789470       -0.5702537860
 H         -2.6748127422        3.1894774108       -1.4780885323
 H         -0.3156842968        3.5945707226       -0.9437446461
 H          1.3878455106        2.0356485550        1.7802744372
 C          1.9203435858        3.3594512755        0.2176463869
 C          3.3904581483        3.4945422680       -0.0407713196
 C          2.4197926385        3.5717556026       -1.1788989263
 H          2.2516351084        4.5330259294       -1.6422812109
 H          2.3567418742        2.7406896043       -1.8636703049
 H          3.8867743179        4.3990286305        0.2774507109
 H          3.9993324455        2.6068462735        0.0530404867
 H          1.4395360020        4.2071330087        0.6960681371
