  62
        -98.94403111
 C          2.2111062902        1.2830384705       -0.1626329405
 C          2.5973613500        0.1833145701       -0.9661033401
 C          3.9700266099       -0.3038309200       -0.7640539500
 C          4.7679965400        0.3160838202        0.1241440697
 C          6.1642032300       -0.1125087098        0.4689214598
 C          6.1664330399       -1.0864404594        1.6556396402
 C          5.1690594297       -2.2363909393        1.5132888606
 H          5.2805662697       -2.8743722690        2.3927413609
 H          4.1533102598       -1.8344953792        1.5356116605
 C          5.3502806796       -3.0803701898        0.2438835410
 H          5.2831902794       -4.1365466997        0.5133495214
 H          6.3447694496       -2.9150780301       -0.1723052292
 C          4.2998706695       -2.8306417001       -0.8401105091
 H          4.3894468894       -3.6223645804       -1.5888532488
 H          3.2991558196       -2.9041262698       -0.4059308090
 C          4.4075302097       -1.4894834104       -1.5768880596
 H          5.4260960697       -1.3522062907       -1.9455088997
 H          3.7323747997       -1.5288776606       -2.4368275096
 H          5.9180363200       -0.5287504390        2.5615678700
 H          7.1744599699       -1.4890790895        1.7702582003
 H          6.6207367699       -0.5812601102       -0.4005326201
 H          6.7405596901        0.7744578502        0.7372386394
 O          4.3694135002        1.3871559906        0.8566843093
 C          3.0806605603        1.8822482707        0.7495369392
 O          2.8336184105        2.8439094110        1.5046999888
 H         -1.1399347000        0.5546655504       -1.7505795501
 C         -1.0892932300        0.2044324107       -0.7320739700
 C         -0.1712923999        0.7562886409        0.1458913898
 C         -0.1278129499        0.2763337714        1.4527938900
 C         -0.9689291800       -0.7401137983        1.8622521004
 C         -1.8716388301       -1.3034247885        0.9765710006
 C         -1.9260431601       -0.8289054990       -0.3265320895
 N         -2.8375349203       -1.3953011392       -1.2307961993
 S         -4.3990065103       -1.6950314088       -0.7184173991
 O         -4.4379933704       -2.9116388785        0.0542580414
 O         -5.1993582303       -1.6850979591       -1.9225747391
 C         -4.8178897300       -0.3058682283        0.3202999604
 C         -5.1060232000       -0.5028646778        1.6551396305
 C         -5.3991402398        0.5961536025        2.4469886601
 C         -5.3949402797        1.8667605923        1.8933968796
 C         -5.1058049697        2.0482830618        0.5493084495
 C         -4.8133031799        0.9533388414       -0.2469020601
 H         -4.5915735499        1.0597564010       -1.2965241101
 H         -5.1045705196        3.0377269416        0.1209415692
 H         -5.6192326295        2.7215465626        2.5118296993
 H         -5.6263556398        0.4580149730        3.4918154802
 H         -5.0973115401       -1.5075195176        2.0454779009
 H         -2.8134709203       -0.9905079696       -2.1544632794
 H         -2.5204262602       -2.1120667483        1.2714434410
 H         -0.9189810600       -1.1037122579        2.8774354705
 H          0.5858702202        0.7095338316        2.1407763798
 C          0.7999940302        1.8402215806       -0.2533577607
 H          0.7434954404        2.6415368409        0.4962703790
 C          0.5409466903        2.4342790202       -1.6212909509
 C         -0.5595001096        3.4356988203       -1.8002533612
 C          0.8719724705        3.8752720200       -1.8610727615
 H          1.2870648304        4.1558833396       -2.8175600516
 H          1.2729249706        4.4381643703       -1.0307487617
 H         -1.1337439395        3.7048180407       -0.9269022813
 H         -1.1288051697        3.4208206100       -2.7174322912
 H          0.7396502501        1.7393826398       -2.4287408006
 O          1.8419743398       -0.3654717601       -1.8103854899
