  62
        -98.93857215
 C          1.9412765271        0.9964993765        0.3489555063
 C          2.2830562459       -0.1325478925       -0.4304765307
 C          3.5861455293       -0.7639978466       -0.1444430251
 C          4.3709945377       -0.2681995671        0.8293196032
 C          5.7100353954       -0.7279057632        1.3672512155
 C          6.5642585949       -1.7288868442        0.5934441025
 C          7.1207968715       -1.2073861364       -0.7310646037
 H          7.8723706743       -0.4437233896       -0.5155119968
 H          7.6231892385       -2.0336757209       -1.2388450673
 C          6.0964052983       -0.5901690040       -1.6798312290
 H          5.6598508299        0.2988559790       -1.2201796697
 H          6.6281040160       -0.2601802118       -2.5764638538
 C          4.9714061358       -1.5228178908       -2.1240842013
 H          4.4132391936       -1.0118498325       -2.9132248066
 H          5.3956732658       -2.4335475839       -2.5513456702
 C          3.9660801130       -1.9173600036       -1.0283196758
 H          3.0455500181       -2.2472503204       -1.5185605430
 H          4.3338297902       -2.7505080084       -0.4342351439
 H          6.0152764420       -2.6531812269        0.4386492189
 H          7.4153751287       -1.9717216385        1.2355561185
 H          6.2914998706        0.1846564397        1.5331406404
 H          5.5032301958       -1.1447066242        2.3593382332
 O          3.9896689853        0.8109364290        1.5726818507
 C          2.7950103795        1.4666430366        1.3513655966
 O          2.6074638330        2.4477988304        2.0977651115
 H         -0.4464488905       -0.6075533026       -0.4626195533
 C         -0.9602232921       -0.1399704826        0.3640933089
 C         -0.5133487612        1.0867590072        0.8344809574
 C         -1.1752877101        1.6678818534        1.9094894573
 C         -2.2530393477        1.0324767986        2.5019984846
 C         -2.6934150769       -0.1918232343        2.0329579072
 C         -2.0360814519       -0.7808725713        0.9602552305
 N         -2.4855247658       -2.0204129208        0.4673990223
 S         -4.1206669064       -2.1282326569        0.1193614340
 O         -4.8522674647       -2.4064968445        1.3304959389
 O         -4.2320281696       -3.1217621846       -0.9254754739
 C         -4.5605597022       -0.5107581801       -0.4930805619
 C         -3.9433462127       -0.0629806097       -1.6443957295
 C         -4.2295416242        1.2112818765       -2.1051576701
 C         -5.1204357870        2.0137717084       -1.4090042973
 C         -5.7350556965        1.5479006968       -0.2574656725
 C         -5.4520110712        0.2740776832        0.2090345554
 H         -5.9036323178       -0.1264032825        1.1018794132
 H         -6.4286194085        2.1735048325        0.2808470237
 H         -5.3359385836        3.0077381906       -1.7679042224
 H         -3.7534525117        1.5742751437       -3.0018426654
 H         -3.2564098651       -0.7114822465       -2.1645089489
 H         -1.9278462217       -2.3680041016       -0.2995605127
 H         -3.5288310457       -0.7039742334        2.4825084769
 H         -2.7552982441        1.4947988265        3.3378910836
 H         -0.8298655014        2.6185959895        2.2887466941
 C          0.6515998359        1.7845581004        0.1739675197
 H          0.8152123221        2.7323220530        0.7035840379
 C          0.3396242389        2.0955731837       -1.2780361725
 C         -0.5957644749        3.2220123939       -1.5932670012
 C          0.8678417353        3.3580774200       -1.8863640040
 H          1.1953516079        3.3362332034       -2.9150599801
 H          1.4577183824        4.0081405759       -1.2562222573
 H         -1.2764481188        3.1086713124       -2.4224825197
 H         -1.0010856627        3.7820272544       -0.7644492727
 H          0.3053988157        1.2177914119       -1.9091005075
 O          1.5502594756       -0.6223671870       -1.3325140101
