  62
        -98.94366874
 C         -1.7319079323        1.0791901540        0.3128114763
 C         -0.7367768345        1.6548977394        1.1328206441
 C          0.1301000999        2.6694542124        0.5084218691
 C         -0.0208792590        2.9495950148       -0.7995991055
 C          0.6896607716        3.9483250125       -1.6891131695
 C          2.0153895508        4.5740479900       -1.2639016127
 C          3.1823366487        3.5933985142       -1.1734290761
 H          3.3968511034        3.2071725555       -2.1731749225
 H          4.0621695041        4.1438198941       -0.8315134238
 C          2.9581406819        2.3971767066       -0.2514073446
 H          2.1919453594        1.7428491500       -0.6755605536
 H          3.8848646442        1.8158640036       -0.2260380649
 C          2.5904795448        2.7582899611        1.1874279312
 H          2.6939471017        1.8524677015        1.7884257784
 H          3.3028479423        3.4920732535        1.5697184351
 C          1.1638224827        3.3019628399        1.3975291477
 H          0.8620725600        3.0723455459        2.4237493880
 H          1.1344081164        4.3841839366        1.2848429561
 H          1.8998822278        5.1089881227       -0.3258458640
 H          2.2656815265        5.3166312056       -2.0265726574
 H          0.8285365007        3.4359119996       -2.6467021543
 H         -0.0317999001        4.7533677560       -1.8702347459
 O         -0.9780246140        2.3448939532       -1.5605105260
 C         -1.8436007101        1.4003073138       -1.0390092255
 O         -2.6594710571        0.9417256474       -1.8622633309
 H         -0.3513345032       -1.0991902645        0.2544847961
 C         -1.1657307536       -1.6657646531       -0.1662137382
 C         -2.4691754468       -1.2559647509        0.0839617944
 C         -3.5118443498       -2.0051124520       -0.4426654589
 C         -3.2427722415       -3.1042403995       -1.2413490495
 C         -1.9431297306       -3.4623300293       -1.5476163970
 C         -0.8912270202       -2.7292346617       -1.0067952662
 N          0.4407430524       -3.0588253565       -1.2873703907
 S          1.6709137979       -1.9233201318       -1.2457455592
 O          1.2129447110       -0.5904662956       -1.5584138973
 O          2.6811977725       -2.4731556490       -2.1262516441
 C          2.2587338016       -2.0350206481        0.4313287804
 C          2.0495130532       -1.0039463332        1.3230422572
 C          2.4947505133       -1.1426286861        2.6284685313
 C          3.1443724299       -2.3034863794        3.0168552078
 C          3.3558541237       -3.3288838864        2.1067722214
 C          2.9079501668       -3.1969770354        0.8029504209
 H          3.0572160567       -3.9649726246        0.0624886770
 H          3.8644413097       -4.2293574453        2.4111558109
 H          3.4876240301       -2.4070928976        4.0340647602
 H          2.3176377951       -0.3439667409        3.3317575530
 H          1.5399298848       -0.1110439933        0.9949780313
 H          0.5725474249       -3.7423174785       -2.0173598408
 H         -1.7397494280       -4.2944551026       -2.2043211445
 H         -4.0605418576       -3.6757530454       -1.6539358275
 H         -4.5326289157       -1.7195162227       -0.2482457303
 C         -2.6499290479        0.0111155830        0.8837421832
 H         -2.2991974548       -0.1652698150        1.9113277400
 C         -4.0807708499        0.5025126471        0.9291263520
 C         -5.0337240921       -0.0391647859        1.9514541332
 C         -4.5173403161        1.3618070180        2.0763429035
 H         -5.1909663233        2.1819606278        1.8782640795
 H         -3.7856950942        1.5735551167        2.8421918811
 H         -6.0663890890       -0.1796547943        1.6699554822
 H         -4.6584753315       -0.7803297650        2.6405261102
 H         -4.4654945261        0.7472106047       -0.0548450808
 O         -0.5772760868        1.3411337679        2.3444951177
