  62
        -98.94046572
 C         -2.5122412076       -1.2624416562        0.1184801506
 C         -3.4050753788       -0.6564230599        1.0419457487
 C         -4.4008070937        0.2623617916        0.4818677581
 C         -4.4416900375        0.4678896204       -0.8466405152
 C         -5.4170484618        1.3489708239       -1.5788569463
 C         -5.0199498086        2.8312568612       -1.6092155071
 C         -5.1720201562        3.5727617320       -0.2804427278
 H         -5.0721227717        4.6384838645       -0.4956025437
 H         -6.1773232766        3.4125462758        0.1102545310
 C         -4.1356456913        3.1849117236        0.7836832075
 H         -3.2972801150        2.6716506957        0.3066533117
 H         -3.7341263592        4.0887274002        1.2473135140
 C         -4.6796557992        2.3031291778        1.9078338871
 H         -3.8539657017        2.0585871509        2.5808572524
 H         -5.4277088724        2.8573577265        2.4789078001
 C         -5.3069568554        0.9867820222        1.4307510443
 H         -6.2727507269        1.1773678326        0.9631637234
 H         -5.4585735653        0.3435301951        2.3008766304
 H         -3.9861674143        2.9090476216       -1.9540549853
 H         -5.6547746924        3.3228200847       -2.3500731257
 H         -5.4565653255        0.9816340634       -2.6066928266
 H         -6.4075027104        1.2456030534       -1.1347229810
 O         -3.5814386031       -0.1418738871       -1.7028263139
 C         -2.5843291521       -0.9991865347       -1.2497644023
 O         -1.8595733427       -1.4378785746       -2.1639598998
 O         -3.3754827387       -0.8859940376        2.2799203739
 C         -1.4863897795       -2.2192931946        0.6996205748
 C         -0.1675498846       -1.5383595819        0.9622846070
 C          0.4762536761       -1.6738527756        2.1864809050
 C          1.7027500015       -1.0715055034        2.4077445380
 C          2.3103303351       -0.3231086171        1.4156598531
 C          1.6740267796       -0.1791784257        0.1895768348
 C          0.4445351731       -0.7830089593       -0.0286266261
 H         -0.0387102446       -0.6801337554       -0.9896561388
 N          2.2853537733        0.5829558147       -0.8260103008
 S          3.8148777555        0.0780819481       -1.3156719212
 O          3.9691838536        0.5707783286       -2.6667411348
 O          3.9828256635       -1.3444022844       -1.1253480704
 C          4.9202734345        0.9715341978       -0.2433452651
 C          5.8289666029        0.2841177268        0.5371856395
 C          6.6849750047        1.0023377156        1.3578359496
 C          6.6174106042        2.3869448375        1.3826823848
 C          5.7007226545        3.0622572005        0.5903250265
 C          4.8433496735        2.3506148011       -0.2334651439
 H          4.1195576082        2.8353952748       -0.8672438749
 H          5.6511987686        4.1390145571        0.6122567496
 H          7.2834257019        2.9434988480        2.0229735444
 H          7.3987205377        0.4794515144        1.9738863275
 H          5.8400708868       -0.7929947456        0.4889103790
 H          1.6926243643        0.6997963799       -1.6364414792
 H          3.2654466851        0.1479626567        1.5811691063
 H          2.1911971410       -1.1853129427        3.3632715050
 H          0.0046152320       -2.2498191079        2.9691675527
 H         -1.9053056503       -2.5113505169        1.6756937520
 C         -1.3301717783       -3.4923318339       -0.1230447765
 C         -0.1045795447       -3.8338033535       -0.9115787806
 C         -0.4164252308       -4.5858664110        0.3454899128
 H         -0.7507235752       -5.6092982684        0.2695292074
 H          0.1991271709       -4.3825859655        1.2087411544
 H         -0.2448139099       -4.3241099404       -1.8631685414
 H          0.7275734266       -3.1462137774       -0.9039920592
 H         -2.2743450552       -3.8046648297       -0.5587574235
