  62
        -98.94096276
 C          1.0864981604        1.4811861778        0.0507420488
 C          1.5404396141        0.5101241355        0.9738383988
 C          2.4808860050       -0.5055649488        0.4691309223
 C          2.8170595631       -0.4951190238       -0.8343534844
 C          3.7438397679       -1.3808748020       -1.6419218246
 C          4.5922183419       -2.4471712442       -0.9550872232
 C          5.7624731387       -1.8913915319       -0.1416787308
 H          6.2082663671       -2.7094039816        0.4278995757
 H          6.5195030270       -1.5214690246       -0.8378478239
 C          5.4212044664       -0.7481092123        0.8109412450
 H          6.3531252677       -0.4030198139        1.2669462566
 H          5.0095525968        0.0908513417        0.2466544026
 C          4.4579635330       -1.1057845247        1.9399273183
 H          4.3974496346       -0.2438248255        2.6101138176
 H          4.8579475878       -1.9450918462        2.5124823776
 C          3.0285814973       -1.4545527990        1.4967975626
 H          2.9681369596       -2.4818873529        1.1480065710
 H          2.3743166640       -1.3669497607        2.3690523489
 H          3.9678893843       -3.0904706539       -0.3419715891
 H          5.0114113576       -3.0745124751       -1.7462687467
 H          3.1118796657       -1.8633969412       -2.3952114330
 H          4.4034267198       -0.7028619075       -2.1936154701
 O          2.2738069840        0.4027868795       -1.7069846250
 C          1.4048969295        1.4027127619       -1.3038570825
 O          1.0046357564        2.1284085706       -2.2323357338
 H         -1.3749125985        0.7304728343        1.6480074400
 C         -1.8869654898        1.2122537455        0.8248573498
 C         -1.2420939321        2.2359217718        0.1394840754
 C         -1.8964584844        2.8367196504       -0.9275205312
 C         -3.1638647578        2.4170664625       -1.2966389123
 C         -3.8043640577        1.4004529958       -0.6109336138
 C         -3.1557702124        0.7944518755        0.4575259758
 N         -3.7973401388       -0.2590624803        1.1513308344
 S         -3.9348165126       -1.6938618105        0.3006005994
 O         -4.7132139585       -1.4538923740       -0.8867081513
 O         -4.4674963371       -2.6578495737        1.2354599556
 C         -2.2644261982       -2.1389985648       -0.1412794274
 C         -1.5930237857       -3.0653264744        0.6310726784
 C         -0.2853803246       -3.3867486612        0.3070575419
 C          0.3286353062       -2.7700005643       -0.7715368743
 C         -0.3534595534       -1.8295690341       -1.5277697024
 C         -1.6635451788       -1.5079627021       -1.2124329584
 H         -2.2225046331       -0.7862679305       -1.7863926362
 H          0.1300016290       -1.3362606976       -2.3570080141
 H          1.3447912960       -3.0232694716       -1.0272135879
 H          0.2509282193       -4.1138017337        0.8953335355
 H         -2.1110845688       -3.5248250405        1.4575839363
 H         -3.3686424584       -0.4547147570        2.0460740564
 H         -4.7828728694        1.0518837038       -0.8983324103
 H         -3.6597716686        2.8889549057       -2.1314165282
 H         -1.4056671168        3.6194565671       -1.4818347097
 C          0.1650449588        2.5791878141        0.5585178895
 H          0.2117735042        2.5116808153        1.6542772447
 C          0.6174798523        3.9598651855        0.1374743055
 C          0.0580103740        5.1582348117        0.8422789442
 C          1.4851778809        4.7581691966        1.0619299551
 H          2.2651423069        5.3705997694        0.6349710147
 H          1.7508120594        4.3133427507        2.0099188388
 H         -0.1439678109        6.0481916193        0.2662648481
 H         -0.6469377127        4.9823741001        1.6408135170
 H          0.8192958344        4.0428469705       -0.9229111487
 O          1.1769817248        0.4933272211        2.1813461809
