  62
        -98.93685607
 C          0.9793017598        0.7724138617        0.8946824186
 C          1.7079217593        0.8359613011       -0.3180297017
 C          2.3745615798       -0.4096901289       -0.7268704609
 C          2.1885919606       -1.5278050984       -0.0042262400
 C          2.8274067811       -2.8550569183       -0.2933005491
 C          4.1668193915       -3.0022582771        0.4423667005
 C          5.1015679308       -1.8055819468        0.2675377992
 H          4.6555047206       -0.9324058966        0.7488103086
 H          6.0253266511       -2.0333250759        0.8036662990
 C          5.4285910701       -1.4646350678       -1.1928669512
 H          6.5011937600       -1.2779741174       -1.2777964618
 H          5.1960519403       -2.3161546485       -1.8333927704
 C          4.7161464593       -0.2209312386       -1.7279426920
 H          4.8698263991        0.6140956520       -1.0398919127
 H          5.1768120688        0.0509929508       -2.6813725224
 C          3.2091542993       -0.3681944895       -1.9753325213
 H          3.0178421095       -1.2479660302       -2.5941297105
 H          2.8715765386        0.5138346998       -2.5279637719
 H          3.9635000019       -3.1252371163        1.5085971907
 H          4.6595953218       -3.9075515971        0.0831620711
 H          2.1501684316       -3.6436623684        0.0402423818
 H          2.9743929608       -2.9523059892       -1.3674505891
 O          1.4208821010       -1.5673476079        1.1150513104
 C          0.8033774106       -0.4217644378        1.5912814597
 O          0.1296664111       -0.5950229573        2.6279995501
 O          1.8023885385        1.8717784005       -1.0240643726
 C          0.2268848594        1.9953622618        1.4122229279
 C         -0.7064370812        2.4278046404        0.3050101679
 C         -0.7774416421        3.6509446398       -0.3468127531
 C         -1.6654797126        3.8389356185       -1.3949917529
 C         -2.4812613422        2.8171885178       -1.8396293518
 C         -2.4245367714        1.5875397383       -1.1931550408
 C         -1.5747890609        1.4216140596       -0.1163466110
 H         -1.5451184002        0.4634812901        0.3834371398
 N         -3.2188429310        0.5030585776       -1.5991640696
 S         -2.5603493502       -1.0373637820       -1.5475938086
 O         -1.1401220203       -1.0325601616       -1.8135314491
 O         -3.3711341702       -1.8015266932       -2.4752389776
 C         -2.8902837593       -1.6181098108        0.1014415020
 C         -1.9521934887       -2.4141226299        0.7265696323
 C         -2.2181677880       -2.8951194789        1.9981605328
 C         -3.4162340679       -2.5759237690        2.6169988130
 C         -4.3526180785       -1.7813822400        1.9727454127
 C         -4.0923797793       -1.2978144909        0.7008634022
 H         -4.7927026098       -0.6731327417        0.1719756720
 H         -5.2821120985       -1.5342827001        2.4600450329
 H         -3.6171420773       -2.9462091783        3.6098990934
 H         -1.4822526075       -3.5011599682        2.5014361031
 H         -1.0231557788       -2.6221196498        0.2181479422
 H         -3.7512884814        0.6550646066       -2.4436982395
 H         -3.1446726726        2.9605093067       -2.6787728716
 H         -1.7001945632        4.7979601381       -1.8897590837
 H         -0.1325659824        4.4667764604       -0.0763651540
 H         -0.4137670801        1.6111710821        2.2238843184
 C          1.2048317792        2.9495708928        2.0778355967
 C          2.0207199184        3.9934117226        1.3822517756
 C          0.9473170086        4.4018403629        2.3481080956
 H          1.2565456887        4.7937453338        3.3059779052
 H          0.0379007782        4.8428868921        1.9750338956
 H          3.0509806384        4.1065087534        1.6888632751
 H          1.8788785779        4.1218703517        0.3220077855
 H          1.7204720197        2.4133041837        2.8726161270
