  62
        -98.94041907
 C         -2.0656120806       -1.0201179798        0.5345563208
 C         -2.7754766905       -0.0514822691        1.2902407000
 C         -4.1913051105        0.1277818807        0.9554896699
 C         -4.7459622906       -0.6274529700       -0.0096436795
 C         -6.1824922006       -0.5835778902       -0.4546786096
 C         -6.4814099805        0.5141705890       -1.4847592804
 C         -6.4922902403        1.9395899295       -0.9310479716
 H         -6.9258783002        2.5793819989       -1.7022714521
 H         -7.1500184503        1.9859808303       -0.0624789216
 C         -5.1065713102        2.4862388096       -0.5597085320
 H         -4.3339587903        1.8772718092       -1.0350455315
 H         -4.9981904301        3.5003765193       -0.9510889928
 C         -4.8303133802        2.5499442308        0.9426230579
 H         -5.5138966701        3.2616700313        1.4110303673
 H         -3.8108040702        2.9170375808        1.0871813976
 C         -4.9559341904        1.2029132014        1.6664836790
 H         -4.5280890203        1.3098029622        2.6663844289
 H         -6.0051582604        0.9241041916        1.7629225392
 H         -7.4663567905        0.3045141788       -1.9083384903
 H         -5.7501513005        0.4433209583       -2.2932882204
 H         -6.8316206806       -0.4575157894        0.4122831303
 H         -6.3962355707       -1.5520952405       -0.9118806088
 O         -4.0401944207       -1.5593745806       -0.6991471988
 C         -2.6819351207       -1.7630913006       -0.4735772486
 O         -2.1781065408       -2.6189784512       -1.2221372079
 O         -2.2457442004        0.6256010015        2.2125969794
 C         -0.5954787006       -1.1905074597        0.8711209909
 C          0.2543147495       -0.2639905805        0.0399092202
 C          0.1259184995       -0.2159207916       -1.3446225999
 C          0.9213380896        0.6312515377       -2.0947010406
 C          1.8632459896        1.4403040881       -1.4831202512
 C          2.0030931896        1.3955551492       -0.1028456412
 C          1.1998460396        0.5478184099        0.6491075795
 H          1.3012522696        0.5307640408        1.7258363695
 N          2.9882872597        2.1922567196        0.5155414482
 S          4.5655223297        1.8999505890        0.0187251684
 O          5.4049751398        2.4095422698        1.0785132480
 O          4.7667917098        2.4733420880       -1.2869926121
 C          4.6588165995        0.1212399990       -0.0638831202
 C          4.8288990594       -0.5787536701        1.1143604004
 C          4.7999864693       -1.9633693201        1.0819474715
 C          4.5877726092       -2.6209961211       -0.1202441580
 C          4.4213700493       -1.9038520220       -1.2944179186
 C          4.4563975894       -0.5187114920       -1.2699860297
 H          4.3344537395        0.0735337273       -2.1616847101
 H          4.2572060792       -2.4184864827       -2.2274153281
 H          4.5484452891       -3.6982164311       -0.1410651671
 H          4.9325629992       -2.5248651694        1.9927810819
 H          4.9919679095       -0.0306459194        2.0287308699
 H          2.9375121797        2.1781060704        1.5245161082
 H          2.4964247797        2.1010609276       -2.0530152318
 H          0.8079083496        0.6612081569       -3.1678697606
 H         -0.5993992306       -0.8556038219       -1.8245359994
 H         -0.5129414506       -0.8594289589        1.9186693706
 C         -0.1166817208       -2.6348516098        0.8124867421
 C          0.8727172392       -3.1401528507       -0.1904297475
 C          1.2811787792       -2.9723928196        1.2400541523
 H          1.4389283091       -3.8526185592        1.8440369130
 H          1.9403848593       -2.1494475995        1.4730938417
 H          0.7214351490       -4.1356485810       -0.5779930967
 H          1.2672160092       -2.4461848114       -0.9156841681
 H         -0.8966068009       -3.3294867795        1.1061886026
