  62
        -98.94176019
 C          1.5619478058        1.4903583680        0.1626439946
 C          2.5001980383        0.8870995962        1.0389412380
 C          3.3028285999       -0.2083108592        0.4797632700
 C          3.0863978556       -0.5980029584       -0.7893905518
 C          3.8502980537       -1.6803153419       -1.4951866032
 C          3.1710520828       -3.0480322499       -1.3503451270
 C          2.7626149127       -3.3843484478        0.0834025446
 H          1.9862637962       -2.6870790196        0.4069172961
 H          2.3156067326       -4.3803894400        0.0713587100
 C          3.9205183490       -3.3625446075        1.0913574994
 H          4.8727652433       -3.4318333753        0.5640062101
 H          3.8417122398       -4.2425691379        1.7331411429
 C          3.9427529323       -2.1425192058        2.0142731676
 H          2.9584571116       -2.0097045386        2.4705889266
 H          4.6521878168       -2.3416584232        2.8220329389
 C          4.3558744144       -0.8167165251        1.3623446522
 H          4.5321373502       -0.0925675463        2.1633288796
 H          5.2901520619       -0.9524813760        0.8131105529
 H          3.8531539745       -3.8130070539       -1.7258192202
 H          2.2766748418       -3.0528802717       -1.9757859670
 H          3.9061709413       -1.4227195676       -2.5544527773
 H          4.8600293725       -1.7197541651       -1.0903421400
 O          2.1167914235       -0.0588644874       -1.5687697528
 C          1.3241085651        0.9931677723       -1.1197976431
 O          0.4729121961        1.3649815785       -1.9465970746
 H         -0.8812199699        0.8770230670        1.6811739461
 C         -1.3951016828        1.5353826444        0.9909872963
 C         -0.6807118603        2.5538904344        0.3710422734
 C         -1.3483693643        3.3847560773       -0.5187687435
 C         -2.6937515398        3.1946758122       -0.7813037546
 C         -3.4034796454        2.1846991077       -0.1584770550
 C         -2.7442283040        1.3447526104        0.7304627059
 N         -3.4657835947        0.3195537577        1.3783324086
 S         -4.1498839065       -0.9015478099        0.4651569338
 O         -4.9189298802       -0.3174871029       -0.6026398000
 O         -4.8772950317       -1.7244573501        1.4041700150
 C         -2.7885130843       -1.8445596192       -0.2026646455
 C         -1.9316282322       -1.2519786367       -1.1094350624
 C         -0.8722028628       -1.9934457154       -1.6092866379
 C         -0.6946074826       -3.3074207055       -1.2045003123
 C         -1.5609511055       -3.8863337759       -0.2899376715
 C         -2.6148872173       -3.1476664153        0.2216050405
 H         -3.3128933621       -3.5540427267        0.9356716349
 H         -1.4166779322       -4.9074100486        0.0244079306
 H          0.1234435635       -3.8853720344       -1.6044351135
 H         -0.1905223383       -1.5271307928       -2.3040063874
 H         -2.0834708848       -0.2289634480       -1.4164809904
 H         -2.9701351290       -0.0897799630        2.1578981178
 H         -4.4478136897        2.0179011634       -0.3645811514
 H         -3.1983251278        3.8434552391       -1.4812031446
 H         -0.8084120204        4.1658852250       -1.0277332106
 C          0.7866353069        2.6861574490        0.6862660944
 H          0.9042125261        2.6302840023        1.7813200563
 C          1.3672195260        4.0269523831        0.2590243276
 C          2.8413981296        4.1969868197        0.0497550780
 C          1.9057205289        4.2725863815       -1.1174256421
 H          1.7305071801        5.2372203352       -1.5710718508
 H          1.8873665261        3.4526562972       -1.8183620946
 H          3.4660993934        3.3211633566        0.1490546662
 H          3.3076568206        5.1064536767        0.3976513583
 H          0.8518750278        4.8564207230        0.7338309622
 O          2.6669002215        1.2579879602        2.2319587043
