  62
        -98.93849461
 C         -1.5158420550       -0.7512523414        0.0443300174
 C         -2.8025902029       -1.3308724159        0.1170483349
 C         -3.8961603325       -0.4398469117        0.5398798384
 C         -3.6232107712        0.8419052283        0.8391878224
 C         -4.5677816139        1.9104346928        1.3306040815
 C         -5.9429854546        2.0068871900        0.6556394186
 C         -5.9646083387        1.6286468813       -0.8325401076
 H         -6.4600744920        2.4233048573       -1.3934795062
 H         -4.9452829273        1.5474219846       -1.2136302391
 C         -6.7161215277        0.3235082734       -1.1056686116
 H         -7.6305796238        0.3141703806       -0.5083860869
 H         -7.0131069009        0.3021941095       -2.1570654998
 C         -5.9277647092       -0.9569788719       -0.8327315458
 H         -5.1390307437       -1.0731934228       -1.5810630847
 H         -6.6086673664       -1.8032608750       -0.9524469452
 C         -5.2696736656       -1.0467259303        0.5538677102
 H         -5.9005524180       -0.6012437878        1.3192907155
 H         -5.1296456219       -2.1051428075        0.7905361047
 H         -6.6565789485        1.3814112869        1.1902281427
 H         -6.2805333257        3.0379668865        0.7738105817
 H         -4.7070281711        1.7719010610        2.4067246739
 H         -4.0272127783        2.8500549063        1.1950583241
 O         -2.3632904659        1.3567444758        0.7621754244
 C         -1.2815215680        0.5856121494        0.3642569305
 O         -0.1963996160        1.1926967164        0.3397845065
 O         -3.0279667642       -2.5437083152       -0.1436801950
 C         -0.3401623900       -1.6039644059       -0.3938415175
 C          0.7458074977       -1.5642823069        0.6516328252
 C          0.4108903869       -1.7860615152        1.9854965210
 C          1.3734397335       -1.7310726615        2.9738730307
 C          2.6899858524       -1.4433954650        2.6571976310
 C          3.0376495963       -1.2373066520        1.3283540911
 C          2.0707222160       -1.3130525282        0.3343860179
 H          2.3734584518       -1.1743599130       -0.6888918059
 N          4.3644708666       -0.9651786787        0.9733368704
 S          4.7347664005       -0.0531379848       -0.3732465617
 O          4.5720433060       -0.8452438976       -1.5671392621
 O          6.0798236987        0.4177277824       -0.1164981760
 C          3.6079878443        1.3286150631       -0.3930446343
 C          2.8756296796        1.5896202343       -1.5319912328
 C          2.0231345860        2.6805965085       -1.5466014326
 C          1.9159402919        3.4864168132       -0.4255710621
 C          2.6599520285        3.2126185237        0.7104970540
 C          3.5166020701        2.1252410093        0.7298600343
 H          4.1107721771        1.8915873223        1.5986293139
 H          2.5678793744        3.8394108746        1.5830395474
 H          1.2420905739        4.3284324317       -0.4353524761
 H          1.4372611152        2.8921880891       -2.4273201298
 H          2.9825129738        0.9324606314       -2.3810676539
 H          4.9927908620       -0.7886454730        1.7424188336
 H          3.4410422978       -1.3845731103        3.4298834408
 H          1.0967184733       -1.9025490606        4.0033133986
 H         -0.6201301714       -1.9950724314        2.2369455486
 H         -0.7256900504       -2.6324304792       -0.4591562407
 C          0.1333045213       -1.1692628119       -1.7650871738
 C          0.8107153390       -2.1449662568       -2.6787596959
 C         -0.5791414459       -1.6738035103       -2.9824782286
 H         -0.7273944954       -0.9983309244       -3.8116779237
 H         -1.3969366850       -2.3628134625       -2.8288823235
 H          1.6258358429       -1.7966278226       -3.2958135226
 H          0.9366837528       -3.1567442387       -2.3236928753
 H          0.4732096287       -0.1389902674       -1.7746707441
