  62
        -98.94403707
 C          2.1414482778        1.2677620098       -0.1429441257
 C          2.5407233280        0.1860361129       -0.9645618634
 C          3.9357741649       -0.2467829857       -0.8101969989
 C          4.7488798250        0.3990976156        0.0449907877
 C          6.2008106838        0.0909369673        0.2915085453
 C          6.4351757139       -1.0325508086        1.3105687249
 C          6.0998997687       -2.4400594556        0.8155308046
 H          6.6064418820       -2.6209246194       -0.1330412456
 H          6.5115552465       -3.1421842018        1.5433041980
 C          4.5976303511       -2.7158317088        0.6598743123
 H          4.0286526582       -1.9643501783        1.2123294117
 H          4.3570133224       -3.6854069589        1.1017859347
 C          4.1038396188       -2.7436170251       -0.7867863659
 H          4.5645264162       -3.5813906591       -1.3151811973
 H          3.0225976084       -2.9055001682       -0.7760051531
 C          4.3824215514       -1.4563848029       -1.5740530109
 H          5.4422675541       -1.3856986985       -1.8176788031
 H          3.8098418490       -1.4931151131       -2.5040846014
 H          5.8544026636       -0.8151469975        2.2099352333
 H          7.4925594153       -1.0090488972        1.5840733291
 H          6.6872234761       -0.1631621799       -0.6506337201
 H          6.6512957819        1.0068634166        0.6799561846
 O          4.3326081666        1.4536558330        0.7954912887
 C          3.0195171078        1.8912936217        0.7447058212
 O          2.7610433140        2.8326807933        1.5215046283
 H         -1.1828928624        0.3724903940       -1.6317394102
 C         -1.1094884465        0.0469740536       -0.6064147416
 C         -0.2085827437        0.6564093917        0.2512673498
 C         -0.1321599239        0.2055218617        1.5667471479
 C         -0.9270364692       -0.8355285192        2.0061476081
 C         -1.8149318508       -1.4528422154        1.1418501701
 C         -1.9001194427       -1.0094621878       -0.1703887003
 N         -2.8027078653       -1.6304935111       -1.0523614294
 S         -4.3900891917       -1.7951142563       -0.5494474896
 O         -4.4908934547       -2.8808873734        0.3929200574
 O         -5.1627935906       -1.9329107797       -1.7632628411
 C         -4.7593929210       -0.2481992101        0.2576240625
 C         -4.8375683300       -0.1881360544        1.6338610070
 C         -5.0533276334        1.0399058126        2.2388984122
 C         -5.1827035006        2.1801320237        1.4615623202
 C         -5.1063576118        2.1025335744        0.0790916934
 C         -4.8883314145        0.8782768866       -0.5308290059
 H         -4.8299654884        0.7782102768       -1.6027487911
 H         -5.2104140217        2.9908418026       -0.5230759902
 H         -5.3459112512        3.1354410998        1.9351113913
 H         -5.1153911354        1.1034471349        3.3133553156
 H         -4.7347222016       -1.0980553347        2.2016770208
 H         -2.7558644519       -1.2759140956       -1.9962321510
 H         -2.4343212354       -2.2753585511        1.4608615031
 H         -0.8527424675       -1.1749112134        3.0282424999
 H          0.5693970204        0.6822778763        2.2381559047
 C          0.7089909141        1.7739921649       -0.1804150724
 H          0.6513144881        2.5713843490        0.5731648040
 C          0.3763845571        2.3600547064       -1.5359570795
 C         -0.7859801312        3.2960237729       -1.6729218374
 C          0.6146710593        3.8193450581       -1.7747919346
 H          0.9823269556        4.1293538886       -2.7415482720
 H          1.0077643507        4.4002064706       -0.9531710899
 H         -1.3477751457        3.5241380455       -0.7799336558
 H         -1.3821809671        3.2525080268       -2.5717730165
 H          0.5896710931        1.6825506660       -2.3543317700
 O          1.7820756046       -0.3877880016       -1.7885634326
