  62
        -98.94190671
 C          1.2382351405        1.4134802102        0.7236847798
 C          1.8133203900        1.1528051598       -0.5447635304
 C          2.7978433498        0.0593632295       -0.5884901404
 C          3.0382094000       -0.6620121803        0.5205047297
 C          4.0082741198       -1.8038403005        0.6094518597
 C          3.3357475694       -3.1487095004        0.3048131802
 C          2.4943070989       -3.1448468605       -0.9709553995
 H          2.0999139287       -4.1538002905       -1.1037117691
 H          1.6384611591       -2.4801917203       -0.8320720294
 C          3.2579824886       -2.7305217310       -2.2360985598
 H          2.9970224882       -3.4181126112       -3.0431142396
 H          4.3321017886       -2.8203076912       -2.0693541502
 C          2.9396499087       -1.3198985911       -2.7342915901
 H          3.3475147384       -1.2151662814       -3.7432932403
 H          1.8566649388       -1.1897279908       -2.8041819998
 C          3.5091673893       -0.1715287510       -1.8922538606
 H          4.5764291293       -0.3325544912       -1.7244382809
 H          3.3875623193        0.7515359089       -2.4667744808
 H          4.1129996192       -3.9113427806        0.2293360102
 H          2.6861161796       -3.4045599600        1.1439111705
 H          4.4110727901       -1.8305289603        1.6235971895
 H          4.8250602696       -1.6279343708       -0.0883380307
 O          2.3908284804       -0.4462017398        1.6948584399
 C          1.4820679207        0.5909076704        1.8259749399
 O          0.9597704111        0.6714176108        2.9563797701
 O          1.5426326498        1.7997710095       -1.5884392604
 C          0.2422280209        2.5418760805        0.9274753098
 C         -0.8166895395        2.4878670205       -0.1460548598
 C         -1.0957043396        3.5255543003       -1.0242569600
 C         -2.0985307099        3.3863152803       -1.9683330996
 C         -2.8538123202        2.2303648604       -2.0397935491
 C         -2.5811524302        1.1845767006       -1.1642945889
 C         -1.5610553998        1.3183826406       -0.2388576593
 H         -1.3411825898        0.5031481007        0.4344009809
 N         -3.3163927804       -0.0093936293       -1.2071059083
 S         -3.6980558101       -0.8177599588        0.2077397720
 O         -4.8883818504       -1.5729256386       -0.1225825574
 O         -3.8104028696        0.0893784215        1.3252402018
 C         -2.3595137703       -1.9654962390        0.4549898519
 C         -2.2045022409       -2.9814105393       -0.4682728879
 C         -1.1994650310       -3.9144962395       -0.2765820180
 C         -0.3675763306       -3.8162417794        0.8289338617
 C         -0.5285970601       -2.7859350191        1.7416862514
 C         -1.5373584799       -1.8530615989        1.5579991416
 H         -1.6892792595       -1.0438315487        2.2566924014
 H          0.1249220602       -2.6925100091        2.5952651012
 H          0.4091854793       -4.5485347995        0.9824882316
 H         -1.0669643914       -4.7154281597       -0.9858157279
 H         -2.8801388212       -3.0295260494       -1.3059548977
 H         -4.0820785607       -0.0164707193       -1.8648043181
 H         -3.6432114205        2.1313211704       -2.7694680688
 H         -2.3011697300        4.1953250301       -2.6539389797
 H         -0.5153599094        4.4326849902       -0.9855951104
 H         -0.2564468289        2.3096032208        1.8841362800
 C          0.8701212612        3.9170482904        1.0966826793
 C          2.2486984715        4.0697218002        1.6657981887
 C          1.9878721011        4.4130374299        0.2314730487
 H          1.9888880412        5.4557316898       -0.0513753115
 H          2.3589032606        3.7521562896       -0.5348086812
 H          2.4291865719        4.8717792304        2.3657807085
 H          2.8009964213        3.1669389702        1.8841380388
 H          0.1382360015        4.6540391606        1.4142757593
