  62
        -98.94355255
 C         -1.7922206797       -0.9668926591       -0.6459964909
 C         -1.9847673694       -0.0922827000        0.4507623199
 C         -3.3756009793        0.0728728899        0.8922447303
 C         -4.3596454995       -0.6078003195        0.2772057000
 C         -5.8225899294       -0.5575088996        0.6258556703
 C         -6.5731150094        0.6235940410       -0.0048538085
 C         -6.2664130191        1.9914653205        0.6064089926
 H         -7.0160400491        2.6873470809        0.2243690233
 H         -6.3916711488        1.9406019096        1.6884394225
 C         -4.8710393991        2.5371049606        0.2721742427
 H         -4.4623783893        1.9928181912       -0.5822906878
 H         -4.9521457390        3.5850675408       -0.0251310364
 C         -3.8705235788        2.4690631895        1.4260117724
 H         -2.9080620889        2.8419542996        1.0673288225
 H         -4.2032433686        3.1189269588        2.2383897130
 C         -3.6508234589        1.0583606290        1.9875712612
 H         -4.5157011688        0.7469087286        2.5728390911
 H         -2.7745232487        1.0803479583        2.6399598110
 H         -6.3538153996        0.6449751919       -1.0748901785
 H         -7.6419276194        0.4291788911        0.1109897616
 H         -6.2633850296       -1.4842780892        0.2521727397
 H         -5.9411155392       -0.5290745105        1.7093912104
 O         -4.1265961998       -1.4630144487       -0.7548040508
 C         -2.8458792099       -1.6518692284       -1.2495225912
 O         -2.7762069403       -2.4497242077       -2.2071350019
 O         -1.0501691992        0.5166645094        1.0313781102
 C         -0.3938803899       -1.1874363388       -1.1937300614
 C          0.5087684003       -1.7060328598       -0.1010234520
 C          0.0825298203       -2.7839047304        0.6712895772
 C          0.8724712905       -3.2763111614        1.6912577066
 C          2.1056577606       -2.7085393117        1.9611272168
 C          2.5442036606       -1.6379080612        1.1919387476
 C          1.7494176104       -1.1496128402        0.1630492482
 H          2.1102211704       -0.3274320198       -0.4301224212
 N          3.7672592007       -1.0175740416        1.4688614678
 S          4.6670716006       -0.2575747407        0.2905176283
 O          4.6724388002       -1.0041342297       -0.9462496323
 O          5.9612619707       -0.0531975714        0.9061630282
 C          3.8781461607        1.3204583096        0.0488146098
 C          3.3164113810        1.9718469288        1.1284682404
 C          2.7203229212        3.2063982390        0.9275466616
 C          2.7019590810        3.7691859901       -0.3393273579
 C          3.2786437206        3.1066038309       -1.4117823786
 C          3.8737998205        1.8702542407       -1.2180662098
 H          4.3235579703        1.3133854813       -2.0251185403
 H          3.2631491905        3.5463516717       -2.3965206483
 H          2.2329437311        4.7284266003       -0.4925157470
 H          2.2658387914        3.7219667384        1.7582425121
 H          3.3375148512        1.5046703380        2.0987703400
 H          4.3321565008       -1.4495988222        2.1837823874
 H          2.7200833507       -3.0872562025        2.7636303264
 H          0.5268340905       -4.1103706918        2.2835808760
 H         -0.8829493498       -3.2256485301        0.4632058370
 H         -0.4842064601       -1.9692119582       -1.9623052120
 C          0.1114952601        0.0833213317       -1.8451964004
 C          1.1106381599        0.0169878225       -2.9594217407
 C         -0.3101244501        0.3959134329       -3.2481985501
 H         -0.5284037000        1.4214718031       -3.5049327292
 H         -0.9426066203       -0.3238831866       -3.7476702405
 H          1.8679986300        0.7839237624       -3.0166306102
 H          1.4526766097       -0.9595307373       -3.2679772716
 H          0.1791825704        0.9103541311       -1.1471642298
