  62
        -98.94077106
 C         -1.8620727302       -0.7334642213        0.5179843251
 C         -2.3216241303        0.0663714610       -0.5579250107
 C         -3.4688195383        0.9401684036       -0.2593756350
 C         -3.9586370056        0.9907963933        0.9916976635
 C         -5.1596228570        1.7849688869        1.4142040290
 C         -6.4434290119        0.9508986160        1.2984737590
 C         -6.5995095220        0.2387066684       -0.0452773029
 H         -5.8152132669       -0.5154141882       -0.1432357430
 H         -7.5536163693       -0.2922226295       -0.0225186973
 C         -6.5610590950        1.1690570588       -1.2657439478
 H         -6.7469947751        2.1974434129       -0.9537742657
 H         -7.3665831303        0.8864013068       -1.9467077464
 C         -5.2594630655        1.1107439413       -2.0676955273
 H         -5.0228794986        0.0705082687       -2.3057054218
 H         -5.4192295844        1.6338362446       -3.0142876654
 C         -4.0337978563        1.7436787574       -1.3966002661
 H         -3.2374215524        1.8040499335       -2.1445642957
 H         -4.2749795864        2.7576651888       -1.0708314155
 H         -7.2982192221        1.6089424963        1.4648905186
 H         -6.4378836588        0.1954558484        2.0878098751
 H         -5.0249267305        2.0864463700        2.4544629275
 H         -5.2357292325        2.6768306500        0.7951101186
 O         -3.4304711494        0.2779064968        2.0196176311
 C         -2.3802034270       -0.6009034024        1.8086439788
 O         -1.9907079801       -1.1871455321        2.8388759605
 H          0.6300421573        0.4159029167        1.1151984585
 C          1.0087962448        0.0472856220        0.1691287400
 C          0.4165100701       -1.0726712765       -0.4031065191
 C          0.9117009872       -1.5383892453       -1.6131560009
 C          1.9534390643       -0.8794016847       -2.2431524045
 C          2.5281259763        0.2447087099       -1.6804758551
 C          2.0492490563        0.7106697851       -0.4620997075
 N          2.6354286487        1.8438309879        0.1263583946
 S          4.3031458470        1.9690098307        0.1140735438
 O          4.6287657771        2.7822023981        1.2650600981
 O          4.7441917299        2.4793529288       -1.1601707453
 C          4.9031840655        0.3030168127        0.3356275674
 C          5.6791326110       -0.2866779711       -0.6412700158
 C          6.1079670085       -1.5918747170       -0.4597731067
 C          5.7522095374       -2.2820961237        0.6883066214
 C          4.9753848504       -1.6743715153        1.6630537712
 C          4.5453923149       -0.3693066519        1.4875288428
 H          3.9448988161        0.1327871190        2.2293874758
 H          4.6999268314       -2.2121657876        2.5561291011
 H          6.0819367125       -3.2996242168        0.8266465488
 H          6.7137224436       -2.0661447773       -1.2149393648
 H          5.9305579710        0.2856513066       -1.5192754052
 H          2.2515981507        2.0878510585        1.0268444837
 H          3.3249207982        0.7798447534       -2.1710009846
 H          2.3186000930       -1.2424680744       -3.1916199522
 H          0.4622394969       -2.3990536734       -2.0797462043
 C         -0.7204992773       -1.7216711740        0.3473097393
 H         -0.3693421457       -1.9251814266        1.3724735741
 C         -1.1437295728       -3.0617091260       -0.2362025771
 C         -2.5274093060       -3.5939073042       -0.0141949830
 C         -2.0969574501       -3.1748774467       -1.3862018699
 H         -1.9207104115       -3.9447908311       -2.1232427674
 H         -2.4954053423       -2.2615176531       -1.7979370932
 H         -3.2256044337       -2.9651996551        0.5198745512
 H         -2.6457264003       -4.6471392890        0.1916931338
 H         -0.3397892816       -3.7900499475       -0.1968073747
 O         -1.8162525442        0.0591829518       -1.7089268384
