  62
        -98.93360623
 C          0.7884799420        1.9678562267        0.3804209562
 C          1.4163065355        1.4953741126       -0.7978783539
 C          2.7172080723        0.8249918570       -0.6137376826
 C          3.1936733319        0.6337427804        0.6287265242
 C          4.4868479625       -0.0494116352        0.9751993016
 C          4.3460458866       -1.5777235321        0.8371344421
 C          5.2113106017       -2.1949581385       -0.2604096821
 H          6.2522201002       -2.2108471497        0.0692016398
 H          4.8912034084       -3.2314647482       -0.3865785597
 C          5.1572063021       -1.4875418768       -1.6178838098
 H          5.8156972379       -0.6176788836       -1.6043523861
 H          5.5708826127       -2.1780194355       -2.3559368562
 C          3.7656080983       -1.0406302174       -2.0855467552
 H          3.6959823104       -1.2211839620       -3.1603140155
 H          2.9865134457       -1.6389146422       -1.6129456087
 C          3.4670738516        0.4538599021       -1.8641345180
 H          2.8339857379        0.8069874231       -2.6838106935
 H          4.4013191883        1.0214889524       -1.9070865693
 H          4.6037891660       -2.0550532108        1.7837032738
 H          3.2982003757       -1.8013847283        0.6380117132
 H          4.7283084801        0.2199125197        2.0036821351
 H          5.2773417384        0.3216879931        0.3257694799
 O          2.5059155096        1.0002287863        1.7412413699
 C          1.3136208174        1.6953889786        1.6469270387
 O          0.8202724129        2.0170799254        2.7454919893
 O          0.9405839622        1.6261827997       -1.9557980845
 C         -0.4742319349        2.8156677418        0.3702394744
 C         -1.7243742945        1.9771712981        0.3323437890
 C         -2.7917332533        2.2474746616        1.1804982015
 C         -3.9401646901        1.4748387093        1.1403554780
 C         -4.0411703793        0.4089487311        0.2638842582
 C         -2.9718592064        0.1213708014       -0.5745763288
 C         -1.8292441460        0.9070793358       -0.5454497394
 H         -1.0104778348        0.6903151055       -1.2157355365
 N         -3.0452505862       -1.0046627302       -1.4279457317
 S         -2.9909743641       -2.4796888757       -0.6342723667
 O         -2.8430311610       -3.4809450770       -1.6645690295
 O         -4.1561020172       -2.5913246770        0.2047116496
 C         -1.5185283236       -2.4186708734        0.3734974680
 C         -1.5237252989       -1.6568666191        1.5258758495
 C         -0.3585237385       -1.5580306382        2.2692699268
 C          0.7791871316       -2.2373890733        1.8633793433
 C          0.7645989836       -3.0088849633        0.7111283092
 C         -0.3892557231       -3.0890135150       -0.0513427300
 H         -0.4401965814       -3.6692404428       -0.9588237923
 H          1.6469655274       -3.5485344021        0.4042610721
 H          1.6790762263       -2.1604580015        2.4537221384
 H         -0.3379165069       -0.9429358761        3.1552249340
 H         -2.4294536914       -1.1595369572        1.8314614138
 H         -2.3333656407       -0.9943358304       -2.1463300271
 H         -4.9149743850       -0.2212841855        0.2367016789
 H         -4.7627582662        1.7005149204        1.8017044814
 H         -2.7126358265        3.0625854495        1.8848699097
 H         -0.4671336071        3.3474967157        1.3347855089
 C         -0.4510107675        3.8746270049       -0.7262734041
 C         -1.3144881936        3.8229967883       -1.9470070489
 C         -1.5973761598        4.8304683912       -0.8760337234
 H         -1.3812812602        5.8701379258       -1.0698944065
 H         -2.4664819325        4.6671787476       -0.2568986836
 H         -0.8833709244        4.1559905645       -2.8787655820
 H         -1.9933068563        2.9921284648       -2.0585380554
 H          0.5439578407        4.2870902725       -0.8621593448
