  62
        -98.93400654
 C         -2.0786700190       -0.9369761111       -0.4439253989
 C         -3.1577963591       -0.8577469759        0.4748859515
 C         -3.8100749405        0.4510891083        0.6178505912
 C         -3.3398389138        1.4938071103       -0.0899930577
 C         -3.9312081214        2.8746169140       -0.1118654278
 C         -5.1948869335        2.8938638603       -0.9956522745
 C         -6.4911250928        3.1748545496       -0.2353743045
 H         -6.5385955709        4.2392821385        0.0038024251
 H         -7.3206341980        2.9509244128       -0.9093692181
 C         -6.6827218561        2.3934220547        1.0679163246
 H         -7.7332217396        2.4954498556        1.3482259978
 H         -6.1017144610        2.8601108538        1.8647858677
 C         -6.3302106440        0.9013090660        1.0133447529
 H         -6.3977958309        0.5268509258       -0.0082194278
 H         -7.0706503682        0.3558372890        1.6018403419
 C         -4.9489331091        0.5470187373        1.5952985819
 H         -4.6913046983        1.2580150229        2.3854738125
 H         -5.0066051066       -0.4445709882        2.0538849750
 H         -5.0832933019        3.6513060102       -1.7728782281
 H         -5.2708735593        1.9305214693       -1.5041452943
 H         -4.1671961222        3.1883197352        0.9026526651
 H         -3.1728123356        3.5454134711       -0.5162522584
 O         -2.2930851133        1.3859975128       -0.9462944264
 C         -1.6338076271        0.1821797856       -1.1469228048
 O         -0.6992383585        0.2635066572       -1.9693397569
 H          0.9532513871       -1.0683064685       -1.1821671901
 C          1.0027411283       -1.5987024396       -0.2430809091
 C         -0.1136611201       -2.2882031815        0.2082265306
 C         -0.0442645069       -2.9284098400        1.4404662870
 C          1.1128449663       -2.8772209994        2.1979180253
 C          2.2221006885       -2.1840119158        1.7467559402
 C          2.1577385953       -1.5330645593        0.5219270552
 N          3.2768561757       -0.8028154120        0.0526767179
 S          3.7131414874        0.5119100261        1.0252364969
 O          4.2469010243        0.0032903827        2.2633940938
 O          2.6069175813        1.4386750847        1.1468933594
 C          5.0210216456        1.2287295872        0.0507134873
 C          4.7161294616        2.2280737638       -0.8533599273
 C          5.7320656214        2.7598477422       -1.6320424858
 C          7.0269986223        2.2822787429       -1.4967940374
 C          7.3167810029        1.2775569957       -0.5856819504
 C          6.3059862647        0.7425875203        0.1968583508
 H          6.4838114691       -0.0330030353        0.9230204565
 H          8.3250883904        0.9104089031       -0.4829052287
 H          7.8148804815        2.6982777122       -2.1046255974
 H          5.5088992321        3.5421620183       -2.3396740575
 H          3.6964860652        2.5743055587       -0.9202521036
 H          3.0923460175       -0.4459427847       -0.8777369799
 H          3.1208058240       -2.1159369437        2.3373800774
 H          1.1507918780       -3.3784930677        3.1534134669
 H         -0.9153515941       -3.4491457080        1.8117043426
 C         -1.3975964964       -2.2898323493       -0.5865612591
 H         -2.0821929364       -3.0055642738       -0.1123735872
 C         -1.1856204238       -2.7093271373       -2.0268974075
 C         -0.9223237139       -4.1533105329       -2.3284502758
 C         -2.2327691162       -3.5347691227       -2.7099765446
 H         -2.4330811972       -3.3489825673       -3.7545009362
 H         -3.1095483638       -3.8027236676       -2.1386932334
 H         -0.9097677024       -4.8411047162       -1.4965557224
 H         -0.2203645791       -4.3960852299       -3.1111678941
 H         -0.6751462884       -1.9669260645       -2.6259572254
 O         -3.5607594354       -1.8465042994        1.1444267383
