  62
        -98.94326365
 C         -1.6524478897       -1.1947420810       -0.3010774491
 C         -0.5820558995       -1.6649669315       -1.0935809386
 C          0.3426725408       -2.6196915505       -0.4565159775
 C          0.1297958908       -2.9703597693        0.8250006028
 C          0.9593948010       -3.9254439982        1.6390040439
 C          2.2464293308       -3.2817718572        2.1980156734
 C          2.8510687105       -2.1772940979        1.3308178523
 H          2.0726726702       -1.4443158984        1.1089823715
 H          3.5991352802       -1.6512582070        1.9315073818
 C          3.5354359007       -2.6473764790        0.0459271528
 H          3.7679354405       -1.7634206695       -0.5534217881
 H          4.4822713909       -3.1226000384        0.3156342234
 C          2.7552320611       -3.6422445701       -0.8107689062
 H          2.6188354214       -4.5684509496       -0.2584824453
 H          3.3776084013       -3.8828764408       -1.6779280359
 C          1.4218396710       -3.1463624711       -1.3694529469
 H          0.9743077913       -3.9600731519       -1.9540208861
 H          1.6118237208       -2.3375513618       -2.0827697877
 H          2.9881437910       -4.0634826468        2.3696088842
 H          2.0021499005       -2.8296299463        3.1617257229
 H          0.3399945410       -4.2513173175        2.4770642042
 H          1.1851888213       -4.7996545187        1.0326701248
 O         -0.8892090095       -2.4599227189        1.5679614422
 C         -1.7927665997       -1.5551411197        1.0386431112
 O         -2.6670155899       -1.1711703092        1.8398118008
 O         -0.4022776695       -1.3031724926       -2.2890629789
 C         -2.6351090600       -0.2037278620       -0.9023167202
 C         -2.5424052205        1.0942000789       -0.1391793416
 C         -3.6326418707        1.7587450391        0.4047911377
 C         -3.4440275712        2.9078333999        1.1542142065
 C         -2.1747251214        3.3999495005        1.3943596961
 C         -1.0774206311        2.7500919503        0.8386335069
 C         -1.2747192207        1.6313472895        0.0487269280
 H         -0.4235489505        1.1331959793       -0.3895509414
 N          0.2280741487        3.2132279710        1.0555455065
 S          1.5016516391        2.1279537815        1.1716240877
 O          1.0721841695        0.8282227218        1.6283427390
 O          2.4729051888        2.8097334027        2.0030341671
 C          2.1373149593        2.0550787400       -0.4892773021
 C          2.1372877897        0.8664808493       -1.1889713909
 C          2.6373618098        0.8472787181       -2.4814198408
 C          3.1295144995        2.0122244677       -3.0480947920
 C          3.1291135090        3.1990839985       -2.3299198032
 C          2.6289279289        3.2236542596       -1.0386894133
 H          2.6165560786        4.1215048002       -0.4437113142
 H          3.5146626388        4.1027495181       -2.7737747741
 H          3.5153627696        1.9926426168       -4.0551217219
 H          2.6253885402       -0.0760046724       -3.0387851999
 H          1.7376758199       -0.0208021703       -0.7229907500
 H          0.3075289684        3.9609685117        1.7289883858
 H         -2.0291658817        4.2742647812        2.0104849552
 H         -4.2980875214        3.4139327600        1.5784467959
 H         -4.6270530306        1.3702331486        0.2588841380
 H         -2.2839688799       -0.0290224329       -1.9301486604
 C         -4.0298789198       -0.7885760125       -0.9517360798
 C         -5.0117460198       -0.3079869038       -1.9771793703
 C         -4.4060410394       -1.6727504138       -2.1015094689
 H         -5.0263886691       -2.5346775838       -1.9067544481
 H         -3.6604148993       -1.8355629943       -2.8658997486
 H         -6.0522829299       -0.2338764639       -1.6994487205
 H         -4.6818910500        0.4568352356       -2.6636473811
 H         -4.4023226298       -1.0591691216        0.0299828805
