  62
        -98.94667604
 C          1.1788275341        1.2733839318        0.0816084509
 C          1.5704741474        0.2884277460        1.0216953129
 C          2.4169780581       -0.7947786974        0.5089334303
 C          2.7106570780       -0.8307235680       -0.8036452343
 C          3.6325429689       -1.8241510279       -1.4487263365
 C          5.0767345322       -1.3028577290       -1.4670407633
 C          5.5645889846       -0.7869158704       -0.1131125861
 H          6.6050847509       -0.4795298753       -0.2383523423
 H          4.9964662395        0.1068908118        0.1545318760
 C          5.4674696213       -1.8086218242        1.0286761683
 H          6.3978291178       -1.7843972849        1.6000172847
 H          5.3664909499       -2.8143213938        0.6192646860
 C          4.3305907231       -1.5469528315        2.0185929884
 H          4.3789788947       -0.5114647195        2.3650171682
 H          4.4835365030       -2.1898726041        2.8895299045
 C          2.9141972826       -1.8149237184        1.4934396902
 H          2.8648186858       -2.8185007199        1.0672964021
 H          2.2293225614       -1.7688314706        2.3449452767
 H          5.7298883301       -2.1083287033       -1.8077732671
 H          5.1416527387       -0.4851362679       -2.1884834173
 H          3.5886138316       -2.7658802406       -0.9049180672
 H          3.3044018082       -1.9866522593       -2.4767604438
 O          2.2297830063        0.0723646299       -1.6927489808
 C          1.4534319043        1.1461706210       -1.2805561420
 O          1.0839182975        1.8884123544       -2.2085803593
 O          1.2335262225        0.3211185846        2.2365975682
 C          0.3649076608        2.4563489384        0.5830115281
 C         -1.0722855458        2.2442457911        0.1797918312
 C         -1.6910346286        2.9231734806       -0.8610496273
 C         -2.9970061193        2.6238647239       -1.2127845390
 C         -3.7115884458        1.6525158014       -0.5348371202
 C         -3.0992039284        0.9696295471        0.5083208566
 C         -1.7919724414        1.2663185052        0.8573980425
 H         -1.3098183333        0.7251643856        1.6616275504
 N         -3.8171161926       -0.0395056029        1.1937187645
 S         -4.0893797841       -1.4355594267        0.3107792957
 O         -4.8965796534       -1.1068860133       -0.8353157376
 O         -4.6503983200       -2.3878710240        1.2410821597
 C         -2.4726969712       -1.9784966112       -0.2136447910
 C         -1.8218438431       -2.9474366877        0.5233022263
 C         -0.5537061871       -3.3461247100        0.1346072292
 C          0.0425486931       -2.7629728541       -0.9724321516
 C         -0.6164496271       -1.7780354811       -1.6915312378
 C         -1.8873047423       -1.3788630613       -1.3109887961
 H         -2.4291615282       -0.6214857218       -1.8542695480
 H         -0.1428406547       -1.3115913528       -2.5414983770
 H          1.0265253334       -3.0770139923       -1.2809509334
 H         -0.0342529917       -4.1073789075        0.6939661869
 H         -2.3257765930       -3.3795544137        1.3730406186
 H         -3.3868714172       -0.2939189302        2.0728287208
 H         -4.7221420388        1.3970299695       -0.8089526901
 H         -3.4648635032        3.1554982807       -2.0275638439
 H         -1.1446170264        3.6730170342       -1.4086075477
 H          0.4145875896        2.3957879662        1.6792627014
 C          0.9417100041        3.7842495029        0.1442398681
 C          0.5101580543        5.0359587873        0.8463187362
 C          1.8950490217        4.5016696753        1.0504930629
 H          2.7242842065        5.0334341645        0.6085082320
 H          2.1297112852        4.0398128456        1.9985714938
 H          0.3871571272        5.9374397484        0.2659780285
 H         -0.1973619108        4.9343599953        1.6553918060
 H          1.1352809173        3.8391278353       -0.9196112143
