  62
        -98.94052819
 C         -2.3276306447        0.2809179063       -0.2637530692
 C         -3.5372700432        0.7545394308       -0.8261410964
 C         -4.7085657321       -0.1091841147       -0.6420277632
 C         -4.5756771920       -1.2850912781       -0.0015395474
 C         -5.6701881711       -2.2886984785        0.2414495741
 C         -6.5219922336       -1.9927122953        1.4834439980
 C         -7.4820728070       -0.8104171508        1.3463663402
 H         -8.0819540468       -0.9338494202        0.4442285372
 H         -8.1630388247       -0.8505665998        2.1988425867
 C         -6.7968128719        0.5631274295        1.3273366479
 H         -5.7794716145        0.4686698967        1.7142315323
 H         -7.3295822238        1.2452265224        1.9937462549
 C         -6.7423367818        1.2261768857       -0.0490819478
 H         -6.2054938228        2.1732304861        0.0486348253
 H         -7.7561834658        1.4472611659       -0.3899355770
 C         -6.0364767939        0.3908825825       -1.1253929293
 H         -6.6693959623       -0.4418719350       -1.4309030090
 H         -5.8549744908        1.0308649276       -1.9922761919
 H         -7.1102802581       -2.8883255464        1.6960238945
 H         -5.8546989142       -1.8242833773        2.3318816855
 H         -6.3135382849       -2.3499118452       -0.6366380454
 H         -5.1795951760       -3.2541273571        0.3822962179
 O         -3.3874513954       -1.7183112278        0.4983021630
 C         -2.2412907732       -0.9419896522        0.4013734846
 O         -1.2348364974       -1.4485583532        0.9324926733
 O         -3.6310860648        1.8414035457       -1.4573237255
 C         -1.0783018535        1.1336982139       -0.3887546813
 C          0.0096206586        0.3578861336       -1.0881193210
 C         -0.2567809039       -0.1789431527       -2.3459705737
 C          0.7050976481       -0.9015608148       -3.0234962319
 C          1.9568840984       -1.0973709058       -2.4663661955
 C          2.2319078846       -0.5694152004       -1.2109220536
 C          1.2626528519        0.1580461336       -0.5330472201
 H          1.5051437143        0.5567891747        0.4373012317
 N          3.4811976369       -0.7835308508       -0.6075164952
 S          4.1275904279        0.4034254927        0.4004780321
 O          3.5344356775        0.2935329040        1.7091780833
 O          4.0368995079        1.6990410319       -0.2353387149
 C          5.8262114862       -0.1363478039        0.4663700634
 C          6.1497283437       -1.1914817007        1.2987627964
 C          7.4607708178       -1.6386896362        1.3346376554
 C          8.4212473385       -1.0272554320        0.5421847389
 C          8.0821811566        0.0318786995       -0.2861399156
 C          6.7721972261        0.4833029656       -0.3279828673
 H          6.4635123382        1.3075703406       -0.9505639684
 H          8.8318198395        0.5070310759       -0.8981094076
 H          9.4410174035       -1.3770927943        0.5728966269
 H          7.7285124305       -2.4599626134        1.9796846554
 H          5.3714204805       -1.6288751916        1.9024028324
 H          4.1725955122       -1.1460905398       -1.2494831999
 H          2.7096058848       -1.6628469725       -2.9943724565
 H          0.4825835601       -1.3120589335       -3.9970580794
 H         -1.2345450543       -0.0226332610       -2.7817220393
 H         -1.3638493969        1.9787972162       -1.0333794886
 C         -0.6666738940        1.6748739142        0.9636379977
 C          0.1480881299        2.9292918540        1.0532749038
 C         -1.2916801918        2.9391393199        1.4687787950
 H         -1.5255088859        3.0146409860        2.5201377710
 H         -2.0060739072        3.4305667781        0.8244773563
 H          0.9112097474        2.9928210254        1.8148688696
 H          0.4167156164        3.4165685692        0.1279098189
 H         -0.4714062727        0.8902141994        1.6871901130
