  62
        -98.92903703
 C          2.1730947190       -0.3476622529       -0.3895945910
 C          3.4228855518       -0.6027064913       -1.0047588241
 C          4.6295067499       -0.1463779949       -0.2902295514
 C          4.4857368843        0.4850858497        0.8883164795
 C          5.5508089219        1.0390241976        1.8006540734
 C          6.7872092991        0.1565065739        2.0316842497
 C          8.0542399697        0.6983090531        1.3675332611
 H          8.0679998731        1.7843450848        1.4802110293
 H          8.9231529528        0.3046484641        1.8995666583
 C          8.2169483431        0.3415831840       -0.1090062679
 H          9.0739361271        0.9008996818       -0.4915720081
 H          8.4556429669       -0.7202980468       -0.1999815318
 C          7.0036307579        0.6398746590       -0.9920481919
 H          7.3557164365        0.7350944817       -2.0214359210
 H          6.5576424652        1.5955680966       -0.7190697024
 C          5.9361278378       -0.4642811598       -0.9649608184
 H          6.3508703987       -1.3737646197       -0.5204230976
 H          5.6580113172       -0.7317180656       -1.9892328877
 H          6.5862645102       -0.8589625153        1.6937526562
 H          6.9651262229        0.1089748429        3.1072425524
 H          5.8583247041        2.0161569534        1.4199208045
 H          5.0419204904        1.2219888883        2.7497753255
 O          3.2598731982        0.7439588146        1.4260051738
 C          2.0787371388        0.3539942993        0.8121078143
 O          1.0549212867        0.6929089048        1.4331828759
 O          3.5294220394       -1.1856205713       -2.1175990347
 C          0.9245589087       -0.8152682573       -1.1140215043
 C         -0.1136000294        0.2771276663       -1.1482763671
 C          0.1726046305        1.4512241208       -1.8411565332
 C         -0.7505248603        2.4760770185       -1.9071210887
 C         -1.9880082600        2.3447230973       -1.3014630644
 C         -2.2801540439        1.1810533499       -0.6011720488
 C         -1.3445041335        0.1585165406       -0.5249029958
 H         -1.5916063798       -0.7222199931        0.0439143613
 N         -3.5151882368        1.0245934863        0.0468260219
 S         -4.2057507519       -0.5130547731        0.0987381004
 O         -3.6947353793       -1.2263881330        1.2420144735
 O         -4.0523733166       -1.1674900003       -1.1817363185
 C         -5.9173704781       -0.0907006623        0.3718329081
 C         -6.3412236008        0.1700735642        1.6613333607
 C         -7.6634098232        0.5277295578        1.8722401302
 C         -8.5345524259        0.6194295573        0.7967269138
 C         -8.0952436367        0.3531828577       -0.4914282072
 C         -6.7739725819       -0.0042729645       -0.7095533348
 H         -6.3898884213       -0.2291194385       -1.6915696081
 H         -8.7756769339        0.4219522519       -1.3248250544
 H         -9.5632442394        0.8968666772        0.9642073104
 H         -8.0091451669        0.7326656073        2.8726099224
 H         -5.6299016473        0.0773938297        2.4656145210
 H         -4.1876988401        1.7377995998       -0.1985041779
 H         -2.7142160182        3.1413778554       -1.3586802340
 H         -0.5110436488        3.3817557782       -2.4440656891
 H          1.1365298803        1.5496842885       -2.3224852998
 H          1.2596648662       -0.9918835783       -2.1505939623
 C          0.3710286887       -2.1392662690       -0.6094298155
 C          1.2735622642       -3.1964809463       -0.0498999454
 C          0.3098290977       -2.4823904782        0.8474439146
 H         -0.5582961818       -3.0152126377        1.2088427447
 H          0.6936644664       -1.7577455960        1.5486154575
 H          1.0762335344       -4.2269953639       -0.3040477788
 H          2.3238329910       -2.9597433699        0.0395351402
 H         -0.4574171691       -2.4876554097       -1.2207841286
