  62
        -98.93010931
 C         -2.1437805604       -0.7493566973        0.3295466148
 C         -2.6217892423        0.2787480620        1.1784198149
 C         -3.3481306773        1.3873359136        0.5357949953
 C         -3.4650178940        1.3975189355       -0.8031568786
 C         -4.2071623570        2.3936182244       -1.6503342117
 C         -5.6424208397        1.9112529465       -1.9214422842
 C         -6.6664599460        2.3026402105       -0.8566221023
 H         -6.8544591761        3.3766401118       -0.9172906149
 H         -7.6007530095        1.7923683476       -1.1017943156
 C         -6.2805262530        1.9549802243        0.5835934225
 H         -7.1956224195        1.9296769619        1.1784585644
 H         -5.8471353189        0.9536129568        0.6171195134
 C         -5.3093628845        2.9668248064        1.2098081330
 H         -5.2653967348        3.8544900020        0.5790433144
 H         -5.7006278008        3.2925569038        2.1758171127
 C         -3.8877627049        2.4426508492        1.4625207044
 H         -3.8380343961        1.9894043585        2.4576276513
 H         -3.1922123522        3.2885846412        1.4712780101
 H         -5.9751926381        2.3217643555       -2.8768991263
 H         -5.6162245960        0.8233836508       -2.0254683829
 H         -4.2032394877        3.3750636396       -1.1855029547
 H         -3.6740125838        2.4511161711       -2.6015365723
 O         -2.9324930795        0.4235906018       -1.5896566834
 C         -2.2631588165       -0.6692968482       -1.0589194676
 O         -1.8339936394       -1.4615101835       -1.9165377190
 O         -2.4493050556        0.2716865930        2.4278269461
 C         -1.4083476572       -1.9099587365        0.9749902927
 C         -0.0981496076       -2.1533565411        0.2682429860
 C          0.2339991537       -3.3488708943       -0.3528326579
 C          1.4588321298       -3.4926499444       -0.9818318689
 C          2.3734875980       -2.4567841934       -1.0079868830
 C          2.0534365634       -1.2562915104       -0.3860096974
 C          0.8303549266       -1.1188730636        0.2519510935
 H          0.5778976637       -0.1826410247        0.7366141960
 N          2.9650229062       -0.1779081769       -0.4230422896
 S          4.5347668434       -0.4868723675        0.1248762519
 O          5.2055816652       -1.3196095724       -0.8398047984
 O          4.4985554959       -0.9924859400        1.4807052797
 C          5.2280290677        1.1537795725        0.0935787539
 C          5.2791735520        1.8933628625        1.2595645526
 C          5.8012474223        3.1767115732        1.2167050687
 C          6.2568474789        3.6963910214        0.0145244193
 C          6.1980906513        2.9416669790       -1.1478029482
 C          5.6788512178        1.6574663766       -1.1115774658
 H          5.6213468494        1.0316145169       -1.9866711465
 H          6.5552670524        3.3489933407       -2.0798474352
 H          6.6629278462        4.6951356811       -0.0158766958
 H          5.8507751549        3.7646082534        2.1191191430
 H          4.9223522884        1.4458368050        2.1735688295
 H          2.5984732007        0.6246472588        0.0728240116
 H          3.3297216747       -2.5633022798       -1.4932501674
 H          1.7027986289       -4.4260627701       -1.4666685245
 H         -0.4728221100       -4.1620473865       -0.3641111562
 H         -1.1762570590       -1.5508873820        1.9922575118
 C         -2.2469980534       -3.1671149347        1.1479469187
 C         -3.7361699776       -3.0849132657        1.2968028315
 C         -3.1390985863       -3.6988289891        0.0680269914
 H         -3.2106690533       -4.7699095252       -0.0538162146
 H         -3.1832710448       -3.1507153992       -0.8596412606
 H         -4.2171862089       -3.7304503876        2.0162017335
 H         -4.1935736130       -2.1098982296        1.2104610380
 H         -1.7439094685       -3.9030139344        1.7681574433
