  62
        -98.93511261
 C         -2.4261136493       -1.3977074800       -0.0526037709
 C         -3.2594879196       -0.8684549799        0.9652619188
 C         -4.2278650595        0.1686597201        0.5703595084
 C         -4.2658334091        0.5646965999       -0.7132685417
 C         -5.1337529889        1.6299897599       -1.3244613421
 C         -4.4116566389        2.9881738899       -1.3290339321
 C         -4.5947637892        3.8191535300       -0.0598487722
 H         -3.9403209892        4.6898466100       -0.1447526421
 H         -5.6229641192        4.1842852801       -0.0153386426
 C         -4.2761355596        3.0915566202        1.2488121280
 H         -3.3595779996        2.5094470302        1.1322419483
 H         -4.0810617998        3.8468633303        2.0126472279
 C         -5.4175535998        2.1821618903        1.7276917378
 H         -6.3158490196        2.4031067502        1.1516803375
 H         -5.6521175701        2.4145727204        2.7685234877
 C         -5.1215525098        0.6774465903        1.6685864280
 H         -6.0689671198        0.1294293703        1.6262596878
 H         -4.6249977601        0.3681523404        2.5937128682
 H         -4.7767976986        3.5762810998       -2.1735078322
 H         -3.3470304988        2.8033211898       -1.4964681517
 H         -5.3124119386        1.3279760898       -2.3585943221
 H         -6.0872299391        1.6936889100       -0.8087153224
 O         -3.4353652788        0.0468894998       -1.6581599914
 C         -2.5013918490       -0.9359158402       -1.3664573810
 O         -1.8284825987       -1.2888939903       -2.3539100608
 O         -3.2009196600       -1.2568594497        2.1631163489
 C         -1.4623493195       -2.4978241300        0.3600608895
 C         -0.0897613096       -1.9465610000        0.6488688598
 C          0.5253458501       -2.1631765498        1.8761216200
 C          1.7824285200       -1.6444230998        2.1345032403
 C          2.4532479403       -0.9072758000        1.1751159704
 C          1.8436255107       -0.6776056901       -0.0515986298
 C          0.5811214707       -1.1938242101       -0.3057302201
 H          0.1088122410       -1.0105931202       -1.2599828902
 N          2.5190213510        0.0561623097       -1.0428853597
 S          3.1831860809        1.5373350198       -0.6157796197
 O          2.4518305106        2.1536791499        0.4677852800
 O          3.2619948813        2.2898076796       -1.8487455798
 C          4.8311620707        1.1199361998       -0.0854934991
 C          5.2845386804        1.5349057000        1.1512899109
 C          6.5739922303        1.2033137200        1.5379443613
 C          7.3825125905        0.4673697898        0.6854101317
 C          6.9127785508        0.0604462797       -0.5546519784
 C          5.6254799010        0.3896413897       -0.9478220688
 H          5.2228450912        0.0951092596       -1.9026044789
 H          7.5441925110       -0.5119897004       -1.2149248082
 H          8.3846930004        0.2091456799        0.9891597120
 H          6.9407805900        1.5189497401        2.5013953014
 H          4.6174163902        2.0992638800        1.7833689007
 H          1.9969828712        0.1339465696       -1.9043906998
 H          3.4328067603       -0.5024252000        1.3700873707
 H          2.2468229997       -1.8178928397        3.0931267005
 H          0.0039922598       -2.7283077297        2.6347775900
 H         -1.8710238598       -2.8745894299        1.3108526194
 C         -1.4468195892       -3.6658133601       -0.6183389103
 C         -0.2668272890       -4.0406354003       -1.4593613799
 C         -0.6555083194       -4.8991081201       -0.2958356899
 H         -1.0991966093       -5.8646736101       -0.4848494499
 H         -0.0241414796       -4.8641154600        0.5792617902
 H         -0.4627770787       -4.3959357104       -2.4596521300
 H          0.6316166710       -3.4498491303       -1.3782101698
 H         -2.4210491391       -3.8196757201       -1.0721252506
