  62
        -98.94594893
 C          1.1511900380        1.0216632498       -0.5046621308
 C          2.2177921882        1.2399247609        0.4052264987
 C          2.9761332591        0.0568011316        0.8275769790
 C          2.6025709496       -1.1540599689        0.3766154798
 C          3.3020837905       -2.4431275783        0.6960976902
 C          4.3873439103       -2.7620805282       -0.3418036600
 C          5.3292297695       -1.5926387378       -0.6277678411
 H          4.7643857088       -0.7902035184       -1.1074435513
 H          6.0709507494       -1.9411882778       -1.3495131512
 C          6.0438939397       -1.0361616767        0.6114789283
 H          7.0980085195       -0.8845238062        0.3699605778
 H          5.9988744304       -1.7629640263        1.4233853387
 C          5.5026159991        0.3069836232        1.1048875778
 H          5.4572743983        1.0122803727        0.2713466674
 H          6.2078246992        0.7099378640        1.8366973273
 C          4.1234614194        0.2659561728        1.7755855884
 H          3.9504930990        1.2400031630        2.2429361079
 H          4.1167032802       -0.4942649368        2.5600237188
 H          3.8991419700       -3.0452192590       -1.2769882497
 H          4.9637155209       -3.6179151477        0.0142810602
 H          2.5615724910       -3.2450155987        0.6963811010
 H          3.7417954509       -2.3728601675        1.6893595500
 O          1.5616503194       -1.3328990099       -0.4711056196
 C          0.8088671485       -0.2611007506       -0.9338853599
 O         -0.1055140416       -0.6030255016       -1.7087466993
 O          2.5260009078        2.3835658914        0.8399152679
 C          0.3541070571        2.2489065491       -0.9140065811
 C         -0.8269192226        2.4328116789        0.0104454893
 C         -1.0701820731        3.6505138291        0.6346518187
 C         -2.1332339428        3.7919303790        1.5090488991
 C         -2.9519704520        2.7159217487        1.8013709801
 C         -2.7154143316        1.4942814685        1.1817161606
 C         -1.6806840019        1.3703893386        0.2680488103
 H         -1.5186834415        0.4217124784       -0.2168553193
 N         -3.5054657108        0.3686735482        1.4586183816
 S         -2.7667877099       -1.1352112613        1.5486889021
 O         -3.6521992791       -1.9130501514        2.3947181229
 O         -1.3996224098       -1.0347148903        2.0079840715
 C         -2.8511945002       -1.8029687723       -0.0968105075
 C         -1.8735774999       -2.6874693820       -0.5022333774
 C         -1.9690044101       -3.2624277327       -1.7588978571
 C         -3.0353192006       -2.9431230638       -2.5832506868
 C         -4.0104352909       -2.0528644341       -2.1603018469
 C         -3.9233332607       -1.4777905734       -0.9032580472
 H         -4.6591174910       -0.7773734736       -0.5441924173
 H         -4.8354548213       -1.8021462750       -2.8078305367
 H         -3.1026432607       -3.3870684044       -3.5641521465
 H         -1.2033809098       -3.9450176224       -2.0911264570
 H         -1.0483049095       -2.8931778211        0.1615995923
 H         -4.1865328406        0.4924517582        2.1940626618
 H         -3.7613933818        2.8156164886        2.5083886903
 H         -2.3127066131        4.7430441192        1.9868855287
 H         -0.4082602836        4.4830561594        0.4477478180
 H          1.0308369967        3.1010717296       -0.7607360918
 C         -0.0997238535        2.2494279581       -2.3602815209
 C         -0.3809461746        3.5575461875       -3.0346915415
 C          0.8266958157        2.7588540080       -3.4216744816
 H          0.8352209956        2.2594259375       -4.3785482413
 H          1.7967446757        3.1167280187       -3.1081295722
 H         -1.2060403149        3.6105227767       -3.7278311112
 H         -0.2275749149        4.4603509179       -2.4633546021
 H         -0.7286572331        1.4054442176       -2.6108368102
