  62
        -98.94564743
 C          1.1012770352        1.4530216486        0.7472624515
 C          1.9978261042        1.4405544107       -0.3479908944
 C          3.0012955205        0.3663933503       -0.3396273339
 C          2.9927108262       -0.5388268207        0.6557162087
 C          3.9308789270       -1.7060149059        0.7566434425
 C          3.3581752806       -2.9529184793        0.0690346560
 C          2.8159429804       -2.6955646667       -1.3363079088
 H          2.4620563296       -3.6514319264       -1.7275544341
 H          1.9488585929       -2.0340864800       -1.2690279144
 C          3.8387007818       -2.0977173435       -2.3123340640
 H          4.8493303797       -2.2578762923       -1.9345738857
 H          3.7622499269       -2.6237261023       -3.2662822572
 C          3.6404196767       -0.6103190392       -2.6081087641
 H          4.2691118466       -0.3464939419       -3.4628892823
 H          2.6022639562       -0.4271494267       -2.8970852783
 C          3.9970779915        0.3478338007       -1.4649968657
 H          4.9978136738        0.1202064050       -1.0920271746
 H          4.0048628123        1.3626076636       -1.8735922112
 H          2.5407302472       -3.3360551652        0.6810449057
 H          4.1415290916       -3.7117143639        0.0254916367
 H          4.8836524258       -1.4343790836        0.3057584407
 H          4.0907758112       -1.9262843349        1.8133832895
 O          2.0954171764       -0.5114488846        1.6748588674
 C          1.1311262441        0.4803578804        1.7467608682
 O          0.3716278445        0.3901557660        2.7323296013
 H         -1.3044607275        0.2926821729        0.2706523314
 C         -1.5254728922        1.0563318775       -0.4617765346
 C         -0.9334579967        2.3075453062       -0.3345635523
 C         -1.2265906899        3.2818488712       -1.2783770545
 C         -2.0818783036        2.9980790943       -2.3296775976
 C         -2.6751360588        1.7549197003       -2.4476047617
 C         -2.3970772379        0.7756244368       -1.4999063434
 N         -2.9724819494       -0.5023383499       -1.5813440146
 S         -3.5275515175       -1.2295996631       -0.1772655925
 O         -4.5108540871       -2.1887232653       -0.6369540006
 O         -3.9990022154       -0.2482595174        0.7717769402
 C         -2.1371708091       -2.1255997505        0.4777361641
 C         -1.7861697116       -1.9636126451        1.8025401836
 C         -0.7495418680       -2.7231351905        2.3204425827
 C         -0.0906343441       -3.6316151198        1.5081521892
 C         -0.4484650022       -3.7768394179        0.1757225149
 C         -1.4827451185       -3.0189308930       -0.3477455334
 H         -1.7954014947       -3.1094825397       -1.3747562432
 H          0.0736756106       -4.4800135007       -0.4531943269
 H          0.7040606521       -4.2331936992        1.9217573731
 H         -0.4579910252       -2.5900033383        3.3497001842
 H         -2.3154097321       -1.2401605405        2.4024915656
 H         -3.6225928938       -0.6262509457       -2.3442848238
 H         -3.3466960198        1.5388579060       -3.2647823958
 H         -2.2949272883        3.7598957045       -3.0643025535
 H         -0.7786363631        4.2584247730       -1.1989754179
 C          0.0114158501        2.5085962965        0.8258325484
 H         -0.5476311503        2.3021234077        1.7503908456
 C          0.6004641829        3.8996096355        0.9116402597
 C         -0.1984275364        5.0118299531        1.5195683240
 C          0.9780295610        4.4450582144        2.2546605549
 H          1.8736840808        5.0424862899        2.3354216632
 H          0.7916820010        3.8196788840        3.1159034875
 H         -0.1099369664        6.0018735142        1.0985160483
 H         -1.1866834528        4.7749070522        1.8845897096
 H          1.2518592982        4.1322348385        0.0778314894
 O          1.9719218775        2.2832051564       -1.2825137446
