  62
        -98.94159649
 C         -2.4164446860       -1.0682653776        0.3040172152
 C         -2.4442180130       -0.0928304842        1.3343385968
 C         -2.9309348934        1.2409698869        0.9656890713
 C         -3.3190617053        1.4680915436       -0.3014945415
 C         -3.8141849860        2.7834993328       -0.8276320052
 C         -2.6720149841        3.6209538552       -1.4180723762
 C         -1.4513517169        3.7448177306       -0.5053499502
 H         -0.9596890474        2.7718790459       -0.4198716164
 H         -0.7406190421        4.4063637015       -1.0071531072
 C         -1.7559044319        4.2926634312        0.8961107039
 H         -0.9909251328        5.0286380363        1.1524038277
 H         -2.7163826478        4.8100399297        0.8915312623
 C         -1.7485286618        3.2396035431        2.0060243368
 H         -1.7145913863        3.7585810163        2.9677682557
 H         -0.8408195321        2.6359031449        1.9226888132
 C         -2.9552174974        2.2928751882        2.0376754870
 H         -2.9315139670        1.7521303102        2.9882723679
 H         -3.8801548105        2.8716001478        1.9927804794
 H         -3.0592391899        4.6162151103       -1.6464805273
 H         -2.3483573081        3.1589272628       -2.3540388530
 H         -4.2985243208        3.3297948852       -0.0204348540
 H         -4.5476714411        2.5847280317       -1.6113949634
 O         -3.2753140668        0.5151365755       -1.2650150748
 C         -2.7828159722       -0.7595358432       -1.0055582622
 O         -2.7430998397       -1.4884301818       -2.0160113562
 O         -2.0851777873       -0.3390848271        2.5171736545
 C         -1.8566888817       -2.4284410289        0.6876119123
 C         -0.3528689363       -2.3789397382        0.5925024941
 C          0.4639231724       -2.8225840754        1.6252114842
 C          1.8401134957       -2.6930994945        1.5426427519
 C          2.4265587955       -2.0954918947        0.4403521698
 C          1.6164935922       -1.6526682166       -0.5959789880
 C          0.2437793460       -1.8136506160       -0.5259134325
 H         -0.3747225387       -1.4609855633       -1.3398141791
 N          2.2031317418       -0.9464380114       -1.6841997934
 S          2.2516654061        0.7077228131       -1.3287831402
 O          1.0457855794        1.1398539674       -0.6566718740
 O          2.5596293525        1.3733605228       -2.5759015056
 C          3.6412218194        0.8016148282       -0.2244227655
 C          4.9121769409        0.7144755674       -0.7585031360
 C          6.0000600166        0.7339209931        0.0994696477
 C          5.7981014276        0.8341593184        1.4682226459
 C          4.5153592025        0.9202728812        1.9879588883
 C          3.4226334522        0.9033188587        1.1350734214
 H          2.4070573214        0.9629530140        1.4941776126
 H          4.3592546838        0.9963580020        3.0519993825
 H          6.6456085702        0.8451141376        2.1352650289
 H          6.9991544175        0.6678959195       -0.3000725405
 H          5.0180400852        0.6401050481       -1.8280189334
 H          1.6721266834       -1.0581973214       -2.5389001670
 H          3.4946994865       -1.9669628086        0.3753804107
 H          2.4608768578       -3.0421157083        2.3531198891
 H          0.0106845144       -3.2477476300        2.5086003863
 H         -2.1145428302       -2.5543612914        1.7514107405
 C         -2.4699127249       -3.5925303411       -0.0740633052
 C         -1.7298854794       -4.3714996105       -1.1159037091
 C         -2.0185432906       -4.9937618173        0.2152132848
 H         -2.7616951278       -5.7741919617        0.2724906636
 H         -1.1899748714       -5.1178371344        0.8958029919
 H         -2.2850364669       -4.7001819867       -1.9809901927
 H         -0.7127591890       -4.0879795713       -1.3379694137
 H         -3.5305170201       -3.4469106993       -0.2496994604
