  62
        -98.94183441
 C         -2.7800755909       -0.3415615407       -0.2641743702
 C         -2.0551027909        0.5027788090       -1.1402472804
 C         -2.1049692006        1.9410202091       -0.8390482107
 C         -2.8334099205        2.3793786094        0.2020984293
 C         -2.9317445202        3.8094584895        0.6455779490
 C         -1.8739864501        4.1420117395        1.7067779289
 C         -0.4556188902        3.7089512292        1.3336900489
 H          0.2068864899        4.0441569393        2.1352534188
 H         -0.3965512104        2.6173256592        1.3160933791
 C          0.0489926498        4.2585156089       -0.0075203912
 H         -0.5513433501        5.1185824189       -0.3080164114
 H          1.0754440399        4.6063218287        0.1257738486
 C          0.0706144396        3.2276379886       -1.1377832610
 H          0.5569607795        2.3163016786       -0.7780985809
 H          0.6742931496        3.6306176884       -1.9559135211
 C         -1.2995155605        2.8540512487       -1.7195578009
 H         -1.8606304504        3.7609081288       -1.9545296610
 H         -1.1306824306        2.3029884285       -2.6492654608
 H         -1.8906084699        5.2195507496        1.8818680587
 H         -2.1480161102        3.6418482098        2.6386625590
 H         -2.8118637702        4.4605787593       -0.2181071111
 H         -3.9231475702        3.9672513297        1.0740082990
 O         -3.5478656706        1.5460610797        1.0007942295
 C         -3.5120949408        0.1771629496        0.8092530598
 O         -4.1796897109       -0.4702665801        1.6413137199
 H         -0.2239890612       -1.4306336813       -1.1561034801
 C         -0.2612454712       -2.0138432711       -0.2479776600
 C         -1.4930797412       -2.3619699408        0.2874613802
 C         -1.5170948513       -3.0960501906        1.4672275603
 C         -0.3386278913       -3.4537956206        2.1004530803
 C          0.8861110287       -3.0700027009        1.5826031902
 C          0.9163862588       -2.3409582912        0.4024851500
 N          2.1613507188       -1.8693271015       -0.0990270501
 S          2.6457970791       -0.5036263814        0.7867349996
 O          2.9512251591       -0.9342976312        2.1278542397
 O          1.6596245592        0.5481642788        0.6658484394
 C          4.1464625891       -0.0506868518       -0.0615254006
 C          5.3024833790       -0.7518768919        0.2230817295
 C          6.4646357890       -0.4312690222       -0.4597541506
 C          6.4506347891        0.5779705476       -1.4112410708
 C          5.2823896492        1.2726961177       -1.6855361909
 C          4.1157967992        0.9558274680       -1.0070063408
 H          3.1863123993        1.4738971381       -1.1844627208
 H          5.2738757093        2.0578951976       -2.4243216111
 H          7.3562603592        0.8266428773       -1.9416092709
 H          7.3754719290       -0.9678542623       -0.2486620906
 H          5.2654480789       -1.5215575118        0.9758252197
 H          2.0509797688       -1.5674787717       -1.0609955602
 H          1.8089722887       -3.2989224810        2.0896879102
 H         -0.3755150914       -4.0202020604        3.0188384504
 H         -2.4696038513       -3.3596247403        1.9043116804
 C         -2.7643852712       -1.8625795107       -0.3570260499
 H         -3.6100328512       -2.2090085705        0.2518036903
 C         -2.9351827914       -2.3952698710       -1.7651494097
 C         -3.3760880416       -3.8149675110       -1.9508586494
 C         -4.3124774414       -2.6905349109       -2.2741805796
 H         -4.5332916814       -2.4814917311       -3.3100131396
 H         -5.1416799214       -2.5084343306       -1.6059366396
 H         -2.9529752817       -4.3824461912       -2.7652995993
 H         -3.5716303716       -4.3973870608       -1.0631813493
 H         -2.2223709413       -1.9910521713       -2.4709062599
 O         -1.3908500010        0.1039511887       -2.1356939703
