  62
        -98.94279929
 C         -1.7041312895       -1.1757507338       -0.4082460286
 C         -2.8623804822       -1.3577935358        0.3926904828
 C         -4.0591359145       -0.6055855600       -0.0014167814
 C         -4.0049369471        0.1866321728       -1.0870417994
 C         -5.1280248459        1.0553287388       -1.5732496651
 C         -5.0473580918        2.4599433735       -0.9593610968
 C         -4.8612376982        2.4608801024        0.5581519712
 H         -3.8811175511        2.0407107900        0.7968984573
 H         -4.8496069327        3.5036354457        0.8830038531
 C         -5.9443594832        1.6956319726        1.3316120059
 H         -6.2550396384        2.2993582608        2.1868717191
 H         -6.8213014537        1.5551302565        0.6986932942
 C         -5.4940832928        0.3411318603        1.8822417932
 H         -6.2528235081       -0.0076841353        2.5877216762
 H         -4.5611845136        0.4638673310        2.4383638154
 C         -5.2920065162       -0.7680409846        0.8422565572
 H         -5.1631079738       -1.7105373320        1.3822414672
 H         -6.1809843928       -0.8500502237        0.2136950950
 H         -5.9588907604        3.0025096739       -1.2168403452
 H         -4.2007261190        2.9855218287       -1.4077825723
 H         -6.0777027532        0.5892595139       -1.3176696952
 H         -5.0538741709        1.1381711276       -2.6589086491
 O         -2.8891540591        0.3195881126       -1.8454575089
 C         -1.7068461324       -0.3375582980       -1.5237700988
 O         -0.7759673597       -0.0902553565       -2.3145398856
 O         -2.8923764215       -2.1250505550        1.3919979478
 C         -0.4606384394       -1.9318398796        0.0302544940
 C          0.3804246891       -1.0672301290        0.9404927399
 C          0.5805118278       -1.4406197914        2.2649998376
 C          1.3164130069       -0.6418861368        3.1209342990
 C          1.8766937586        0.5372249475        2.6661299218
 C          1.6832445425        0.9221338817        1.3436888953
 C          0.9393676501        0.1211413613        0.4876748841
 H          0.7800406880        0.4431686682       -0.5303644241
 N          2.2338248477        2.1278139116        0.8724148353
 S          3.1530163227        2.1120750140       -0.5274588655
 O          3.9318830778        3.3305158056       -0.4550377368
 O          2.3138037450        1.9614242018       -1.6860384257
 C          4.2189876436        0.6978353266       -0.3226965291
 C          5.3534437494        0.8439561905        0.4521975811
 C          6.1521880930       -0.2626699055        0.6881800654
 C          5.7982135254       -1.4930379834        0.1554495953
 C          4.6572396929       -1.6220348287       -0.6208519315
 C          3.8552034966       -0.5180082498       -0.8643672157
 H          2.9618525267       -0.5779643430       -1.4648143221
 H          4.3847040485       -2.5789884420       -1.0355944103
 H          6.4157364153       -2.3571210368        0.3431487540
 H          7.0430337401       -0.1641047402        1.2871674186
 H          5.5950820889        1.8209606477        0.8384098994
 H          2.7102255427        2.6614520121        1.5861683033
 H          2.4501761021        1.1662169754        3.3300765261
 H          1.4571850890       -0.9403497694        4.1483665938
 H          0.1318310793       -2.3538422114        2.6266111894
 H         -0.8369692539       -2.7709311338        0.6318140078
 C          0.3556796199       -2.4987009889       -1.1126679858
 C          1.2307413932       -3.6884575783       -0.8614286131
 C         -0.0192042230       -3.8361488895       -1.6747347915
 H          0.0682379954       -3.9882952799       -2.7400423251
 H         -0.8624143418       -4.3450776304       -1.2306641196
 H          2.1783403542       -3.7452757832       -1.3737307034
 H          1.2402781773       -4.1037387602        0.1346586182
 H          0.7033267827       -1.7491263884       -1.8113226570
