  62
        -98.93926900
 C         -1.5567404894       -1.5133424204       -0.1093605211
 C         -1.5873830996       -0.1304775603       -0.4081661405
 C         -2.9234859397        0.4617341596       -0.5969490001
 C         -4.0130493496       -0.3176827406       -0.4898498604
 C         -5.4593748997        0.0662767193       -0.6789241301
 C         -5.9256170398        1.3873878789       -0.0508245694
 C         -5.2140235397        1.7737788285        1.2541760107
 H         -5.9650213397        2.0089972380        2.0108720008
 H         -4.6303752196        0.9303380684        1.6271531002
 C         -4.3049080299        2.9954845787        1.0991876911
 H         -4.8270510901        3.7442689489        0.4993354515
 H         -4.1325182799        3.4310310983        2.0864000213
 C         -2.9346669200        2.7228032391        0.4788489308
 H         -2.3117108398        2.1647539289        1.1830730905
 H         -2.4459840301        3.6854959793        0.3122308612
 C         -2.9497774800        1.9423371697       -0.8453519695
 H         -3.7937724801        2.2335052799       -1.4658687093
 H         -2.0232317101        2.1714376401       -1.3782496495
 H         -5.8064242400        2.1952049793       -0.7714621591
 H         -6.9965927098        1.2879866487        0.1341545606
 H         -5.6695536798        0.0863699997       -1.7521891900
 H         -6.0313710695       -0.7627691410       -0.2553761304
 O         -3.9333173094       -1.6496645807       -0.2054051410
 C         -2.7158903993       -2.2767885406        0.0003942786
 O         -2.7994510591       -3.4917320208        0.2749139081
 H          2.4010763206       -1.3175345999        0.0221688186
 C          1.8877937006       -1.0551039604        0.9308841287
 C          0.5759639507       -1.4472038207        1.1406204187
 C         -0.0295039192       -1.1258932213        2.3533782789
 C          0.6526878508       -0.4068602616        3.3148179191
 C          1.9492517307        0.0200068487        3.0843108592
 C          2.5677210506       -0.3099741207        1.8852109390
 N          3.8824958105        0.0953125196        1.6242593790
 S          4.3981294603        0.3911705304        0.0647501691
 O          4.6597276505       -0.8546446793       -0.6132285915
 O          5.5454033802        1.2588038505        0.2350530394
 C          3.0930038101        1.2801357205       -0.7639967604
 C          2.5846094800        2.4191284002       -0.1743382298
 C          1.5935921199        3.1273559404       -0.8320493094
 C          1.1332083298        2.6904494208       -2.0631822596
 C          1.6558111399        1.5471133312       -2.6438007501
 C          2.6444983901        0.8325593510       -1.9888373305
 H          3.0722705002       -0.0679074787       -2.4018020810
 H          1.2882348099        1.2032155615       -3.5980663702
 H          0.3571258397        3.2407514509       -2.5719466392
 H          1.1766960398        4.0128764501       -0.3796422290
 H          2.9633197701        2.7384461098        0.7833026103
 H          4.2773946205        0.7435756094        2.2886333493
 H          2.4774198307        0.5988579285        3.8263894494
 H          0.1676998208       -0.1629502021        4.2482497193
 H         -1.0502146392       -1.4408316215        2.5260739789
 C         -0.2189915893       -2.1981796703        0.1010678984
 H         -0.4405157291       -3.2042837205        0.4860734480
 C          0.5035857006       -2.3261546696       -1.2240007017
 C          1.4939898407       -3.4285631194       -1.4440579723
 C          0.1659901807       -3.4635122193       -2.1380511221
 H          0.1328964005       -3.2791985088       -3.2013594721
 H         -0.5734491192       -4.1727533595       -1.7950454024
 H          2.3800579207       -3.2203036690       -2.0255135223
 H          1.6598288409       -4.1205959997       -0.6320357826
 H          0.7033656404       -1.3617264394       -1.6780890713
 O         -0.5539852097        0.5754869399       -0.5178678803
