  62
        -98.94619671
 C         -1.3945552048       -1.1365098649       -0.1516922524
 C         -2.5130737464       -1.1713983852        0.7184851669
 C         -3.2602597725        0.0844626073        0.8607443970
 C         -2.8309606091        1.1801842524        0.2081364556
 C         -3.5163452447        2.5150449444        0.2379460610
 C         -4.5286544838        2.6462374328       -0.9082801247
 C         -5.4805451474        1.4562526576       -1.0286633526
 H         -6.1699121312        1.6720817195       -1.8478320663
 H         -4.9096299407        0.5699377137       -1.3145449392
 C         -6.2812404582        1.1522516546        0.2453507624
 H         -6.2716777060        2.0201243498        0.9058010148
 H         -7.3216347334        0.9676460591       -0.0306744110
 C         -5.8015433436       -0.0778549641        1.0183532977
 H         -6.5604011361       -0.3269413759        1.7650202018
 H         -5.7216244239       -0.9295500274        0.3380041604
 C         -4.4661944563        0.0762384286        1.7575189317
 H         -4.4920620275        0.9730345088        2.3799386910
 H         -4.3471316766       -0.7919680485        2.4123425102
 H         -5.1047986026        3.5610936358       -0.7577755124
 H         -3.9791407312        2.7406218187       -1.8475741100
 H         -4.0189935711        2.6381496800        1.1952203579
 H         -2.7608644812        3.2948947529        0.1331133716
 O         -1.7404631143        1.1824977855       -0.5971092195
 C         -0.9969752835        0.0306500591       -0.8063384129
 O         -0.0365029003        0.1831881865       -1.5832398142
 O         -2.8676844271       -2.2044095768        1.3469576434
 C         -0.5711093341       -2.4059105908       -0.3046928945
 C          0.7497646481       -2.1544711239        0.3769426933
 C          0.8414041573       -2.2963128385        1.7587899508
 C          2.0058767832       -1.9686574952        2.4280737989
 C          3.0981743966       -1.4740600029        1.7357913795
 C          3.0107030481       -1.3188236059        0.3590834307
 C          1.8528346158       -1.6795309224       -0.3159971631
 H          1.7999772734       -1.5457455944       -1.3844433475
 N          4.1044472521       -0.7742098791       -0.3499245161
 S          4.5256099116        0.7998562228        0.0412955527
 O          5.4500891470        1.2164116576       -0.9889433552
 O          5.0299063227        0.8216028933        1.3917130580
 C          3.0243203863        1.7572054809       -0.0614095921
 C          2.7397399791        2.4197331661       -1.2376897321
 C          1.5618513756        3.1407883403       -1.3334422881
 C          0.6876716477        3.1771730925       -0.2596491817
 C          0.9821816361        2.4979811683        0.9114637125
 C          2.1620678610        1.7800644941        1.0160474458
 H          2.4243220115        1.2437559320        1.9137955153
 H          0.2917865215        2.5161389644        1.7406387479
 H         -0.2347630899        3.7302752581       -0.3404097173
 H          1.3227214748        3.6618626438       -2.2465750000
 H          3.4474474752        2.3660016369       -2.0496103115
 H          3.9831482581       -0.8335920264       -1.3519315446
 H          4.0039264082       -1.1828391321        2.2425578753
 H          2.0633823823       -2.0905498199        3.4992753197
 H         -0.0212086991       -2.6523381226        2.3045883694
 H         -1.1114578475       -3.1762054366        0.2611283211
 C         -0.4501485075       -2.8525146210       -1.7458073116
 C          0.0498487180       -4.2337663727       -2.0433545298
 C         -1.3912484859       -3.8928107970       -2.2717671166
 H         -1.7454030380       -3.8003638484       -3.2876127040
 H         -2.1258820607       -4.2943272355       -1.5892323853
 H          0.6868724686       -4.3792275086       -2.9024169492
 H          0.2946381697       -4.8657788867       -1.2031000839
 H         -0.1702979917       -2.0552589734       -2.4232403667
