  62
        -98.94273227
 C          1.2153838326        1.6229346045       -0.3332921013
 C          0.0518025432        1.6777671861       -1.1313047238
 C         -1.1307310445        2.3250545440       -0.5376024616
 C         -1.0729603643        2.7564030570        0.7360977129
 C         -2.0966529006        3.4595990583        1.6036541261
 C         -3.5414826184        3.6110448952        1.1383397635
 C         -4.3398855011        2.3076583812        1.1186763034
 H         -4.5225888921        2.0001305240        2.1516752634
 H         -5.3083731385        2.5050111808        0.6535546623
 C         -3.6776746759        1.1312514485        0.4047675703
 H         -2.7445802634        0.8631221175        0.9075589462
 H         -4.3479392821        0.2716724873        0.5026194548
 C         -3.4041333717        1.3390754621       -1.0830669051
 H         -4.3330943550        1.6014549803       -1.5937764453
 H         -3.0506686057        0.3871818426       -1.4878720625
 C         -2.3457889083        2.4010782254       -1.4181779965
 H         -2.7709700845        3.4017755259       -1.3988119989
 H         -1.9939160866        2.2122611027       -2.4368286654
 H         -3.5741759554        4.0989048989        0.1686369445
 H         -4.0297300889        4.2842139280        1.8483598182
 H         -2.0822594277        2.9329097186        2.5638003781
 H         -1.6847886949        4.4570421727        1.7940739342
 O          0.0625045678        2.6395310010        1.4854477246
 C          1.2182592748        2.0660074747        0.9876169827
 O          2.1617546466        2.0224049528        1.8012891877
 O          0.0016059081        1.2114681599       -2.3026502997
 C          2.4632104854        0.9538825837       -0.8831018949
 C          2.7646693785       -0.2611055329       -0.0414821321
 C          4.0113516854       -0.5477548079        0.4968226293
 C          4.1781395433       -1.6500641918        1.3184630116
 C          3.1127940069       -2.4750510113        1.6272643969
 C          1.8645222420       -2.2065735547        1.0747208569
 C          1.7095277784       -1.1254041829        0.2250769150
 H          0.7378698047       -0.9130046699       -0.1967989350
 N          0.7640875644       -3.0342920808        1.3394041980
 S         -0.8035503048       -2.4652962278        1.2612630789
 O         -0.9128803551       -1.0763115423        1.6463533574
 O         -1.5653480596       -3.3966234304        2.0687983743
 C         -1.2921141500       -2.6792558281       -0.4397862966
 C         -0.4473002099       -3.2447754415       -1.3726556785
 C         -0.9008271596       -3.4066245340       -2.6731238386
 C         -2.1833720449       -3.0112019332       -3.0172501626
 C         -3.0237680878       -2.4532054601       -2.0665458642
 C         -2.5749413220       -2.2858769360       -0.7665138945
 H         -3.1923778892       -1.8541036805        0.0050688632
 H         -4.0227789800       -2.1459512170       -2.3323664473
 H         -2.5302714913       -3.1368353865       -4.0306937799
 H         -0.2477321848       -3.8397032094       -3.4136883834
 H          0.5475337938       -3.5416157592       -1.0847553021
 H          0.8913130108       -3.7155392187        2.0721319719
 H          3.2387650170       -3.3158566953        2.2920276906
 H          5.1495301254       -1.8583962114        1.7406878301
 H          4.8474740011        0.0998869772        0.2907821329
 H          2.1955190553        0.6194476308       -1.8963019882
 C          3.6115505765        1.9349404059       -0.9750847942
 C          4.6966841582        1.7317186677       -1.9890382730
 C          3.7013659076        2.8371899539       -2.1680393044
 H          4.0261148200        3.8560458691       -2.0195712445
 H          2.9436419107        2.7275910413       -2.9300067163
 H          5.7088111705        1.9940553154       -1.7205246969
 H          4.6197499272        0.8719580975       -2.6369820214
 H          3.8793088099        2.3520403411       -0.0107472861
