  62
        -98.93733121
 C         -1.3387801530       -1.5527308124       -0.6106247558
 C         -2.5691571629       -1.5127151955        0.0915321897
 C         -3.5660076094       -0.5265038771       -0.3537834040
 C         -3.2716028774        0.2799913276       -1.3875416302
 C         -4.1337778844        1.3304012583       -2.0433543099
 C         -4.9803589059        2.2262233771       -1.1314156247
 C         -4.3259440255        2.5824026597        0.2114962713
 H         -3.2722404107        2.2946145223        0.2049845573
 H         -4.3617967024        3.6651283755        0.3481411614
 C         -5.0277665532        1.9347681948        1.4076356510
 H         -4.7641616357        2.4908988399        2.3105558003
 H         -6.1077411422        2.0247680969        1.2706191887
 C         -4.6756377595        0.4694909179        1.6600656865
 H         -5.3123113283        0.1054243348        2.4701557692
 H         -3.6408470591        0.3933016662        2.0066832321
 C         -4.8324160890       -0.4672480083        0.4509462764
 H         -5.6864961252       -0.1844289902       -0.1595543869
 H         -4.9941146227       -1.4801099741        0.8300156259
 H         -5.9428186705        1.7522212088       -0.9439626077
 H         -5.1837213249        3.1410007730       -1.6910676345
 H         -3.4381060765        1.9486348406       -2.6165098928
 H         -4.7895472181        0.8307379303       -2.7629317183
 O         -2.0798451338        0.2072145573       -2.0404698702
 C         -1.0753826653       -0.6755249712       -1.6624683631
 O         -0.0439578404       -0.5732920106       -2.3512708315
 O         -2.8304329113       -2.2895929597        1.0500284114
 C         -0.3113190442       -2.5491006105       -0.1052426665
 C          0.4849421161       -1.9609871939        1.0346231632
 C          0.8347283705       -2.7314316057        2.1377559294
 C          1.5631497582       -2.1780325404        3.1760141778
 C          1.9458435005       -0.8496813216        3.1399076893
 C          1.5843654763       -0.0638897529        2.0493419630
 C          0.8719616695       -0.6293218809        1.0018322799
 H          0.5867734235       -0.0122660121        0.1660621299
 N          1.9056457791        1.2950493861        2.0226434871
 S          1.9601410358        2.2391487006        0.6505340494
 O          2.4678673140        3.5050830142        1.1372837843
 O          0.6696123971        2.2801515045        0.0108571836
 C          3.1991998725        1.4921524626       -0.3914021069
 C          4.5159660086        1.6518543430        0.0007863998
 C          5.5211886696        1.0864367888       -0.7643069461
 C          5.1952367236        0.3745061171       -1.9096255717
 C          3.8716989905        0.2276493413       -2.2905352461
 C          2.8572954161        0.7864728674       -1.5258083469
 H          1.8216710157        0.6664929615       -1.8050376055
 H          3.6099333072       -0.3223792627       -3.1801191554
 H          5.9759347570       -0.0657649376       -2.5096041365
 H          6.5515867154        1.2031199674       -0.4696547321
 H          4.7265675859        2.2320576824        0.8843658177
 H          2.5131882576        1.6244956187        2.7560684871
 H          2.5011454757       -0.4142291820        3.9561570155
 H          1.8297019398       -2.7852399912        4.0275892166
 H          0.5129122779       -3.7610117269        2.1895848848
 H         -0.9027888496       -3.3816479978        0.3099805891
 C          0.5751670026       -3.1211988068       -1.2017111518
 C          2.0106091669       -2.7365769311       -1.3754284394
 C          1.6609622708       -4.1022839757       -0.8707360315
 H          1.8043215097       -4.9483585416       -1.5254744453
 H          1.8482365910       -4.3113390986        0.1709756557
 H          2.3800620900       -2.6303001123       -2.3830983718
 H          2.4322862714       -2.0241877630       -0.6829124232
 H          0.0154180596       -3.3058508433       -2.1127914785
