  62
        -98.94593830
 C         -2.1161154280       -1.4905615523        0.0019914985
 C         -1.8351410748       -0.3690063105       -0.8151536431
 C         -2.8985416787        0.6437113056       -0.8922006088
 C         -4.0545553165        0.4402456146       -0.2346832247
 C         -5.1969801688        1.4123647831       -0.1875407184
 C         -5.0725989738        2.3567748791        1.0164676972
 C         -3.6921583356        2.9980653758        1.1595169608
 H         -2.9596999629        2.2209144852        1.3899692373
 H         -3.7332388112        3.6661435518        2.0225291206
 C         -3.2256577127        3.7836069765       -0.0739713410
 H         -2.8007458920        4.7331787154        0.2577043643
 H         -4.0808938336        4.0167248121       -0.7093868452
 C         -2.1511443866        3.0792689031       -0.9045922349
 H         -1.3387224083        2.7534692566       -0.2503341344
 H         -1.7397659170        3.8058290914       -1.6103318449
 C         -2.6262672828        1.8689727932       -1.7184427132
 H         -1.8234392070        1.5906269434       -2.4072898948
 H         -3.5037727670        2.1410383684       -2.3084454776
 H         -5.2816441331        1.7877253879        1.9254176332
 H         -5.8309227930        3.1364058900        0.9230005805
 H         -6.1264052387        0.8470650221       -0.0998665674
 H         -5.2189452730        1.9859247876       -1.1120760656
 O         -4.2986837166       -0.6672614437        0.5122760799
 C         -3.3319687874       -1.6467132535        0.6674612367
 O         -3.6688406778       -2.5920812542        1.4090208905
 O         -0.7588982955       -0.2185724069       -1.4485096321
 C         -1.0683729680       -2.5752207538        0.1849610484
 C          0.1876363383       -1.9509287577        0.7413685871
 C          0.1134786936       -1.2798642621        1.9598802259
 C          1.2250989993       -0.6593088486        2.4958031899
 C          2.4352320467       -0.6836587028        1.8234840596
 C          2.5170243777       -1.3432773656        0.6052798671
 C          1.4016439792       -1.9820759156        0.0765091407
 H          1.4858604881       -2.4892702750       -0.8714327760
 N          3.7333769583       -1.3547386845       -0.0955340540
 S          4.6338078977        0.0534494240       -0.1445790998
 O          5.3904482586       -0.0288141836       -1.3749116540
 O          5.4181439905        0.1659594054        1.0611022999
 C          3.4617076302        1.3977396099       -0.2218356996
 C          3.5821211309        2.4492243145        0.6644212771
 C          2.6745018571        3.4936163708        0.5940879473
 C          1.6636237073        3.4664420416       -0.3542046555
 C          1.5568695258        2.4037889143       -1.2378861144
 C          2.4641994442        1.3595031504       -1.1752724628
 H          2.3874139816        0.5227987630       -1.8501475019
 H          0.7624550628        2.3675662052       -1.9653041578
 H          0.9528424517        4.2763765468       -0.4051644303
 H          2.7550389572        4.3214761583        1.2801958037
 H          4.3780551669        2.4254440767        1.3912380782
 H          3.6809857182       -1.7883597241       -1.0055171187
 H          3.3130995495       -0.2051150499        2.2264295374
 H          1.1511276946       -0.1467999116        3.4429773493
 H         -0.8355221904       -1.2491460483        2.4784605012
 H         -1.4717843123       -3.2659834811        0.9386589776
 C         -0.8637336074       -3.3337170076       -1.1093598205
 C         -0.3101580307       -4.7260214935       -1.0834319025
 C         -1.7539544282       -4.4989163916       -1.4148413342
 H         -2.0795119188       -4.6459235219       -2.4338133239
 H         -2.4988895660       -4.7614649223       -0.6778061397
 H          0.3541194986       -5.0346394767       -1.8767342362
 H         -0.0718096413       -5.1506021946       -0.1199523886
 H         -0.5912874593       -2.6885332732       -1.9366757857
