  62
        -98.94346136
 C         -1.4997693154       -1.5178756707       -0.0383555891
 C         -2.1759673515       -0.6786348718        0.8802867136
 C         -3.1280922206        0.2771405238        0.3004405774
 C         -3.2941815318        0.3111811299       -1.0343299731
 C         -4.1509607806        1.3041278418       -1.7636310932
 C         -3.3419923741        2.5540860976       -2.1409773682
 C         -2.5371430810        3.1471785075       -0.9835592293
 H         -1.7590337733        2.4392211796       -0.6867389909
 H         -2.0318897546        4.0376285746       -1.3641819826
 C         -3.3773652650        3.5201454333        0.2460746975
 H         -3.0692920267        4.5080950058        0.5946836630
 H         -4.4292244492        3.5909951248       -0.0331484364
 C         -3.2285655824        2.5605731741        1.4277934894
 H         -2.1695265166        2.4138152946        1.6486270690
 H         -3.6904630696        3.0243529619        2.3031768770
 C         -3.8683606504        1.1789546554        1.2476892757
 H         -3.8474515523        0.6752355347        2.2184045874
 H         -4.9100096523        1.2888254479        0.9398034219
 H         -2.6468331965        2.2875304500       -2.9410140613
 H         -4.0311027488        3.3063791179       -2.5291379466
 H         -4.5253234094        0.8355624296       -2.6753169549
 H         -4.9957715597        1.5809010133       -1.1360399886
 O         -2.6425245122       -0.5233226227       -1.8848418356
 C         -1.7314888867       -1.4605671435       -1.4130486462
 O         -1.2026580011       -2.1520200058       -2.3037970963
 O         -1.9857410325       -0.7234589515        2.1245512772
 C         -0.4938756811       -2.5095045044        0.5041958640
 C          0.9134460056       -2.2513330103        0.0182890565
 C          1.9148185060       -3.2002898839        0.2047356550
 C          3.2154957339       -2.9498222574       -0.1945943834
 C          3.5501105754       -1.7526388403       -0.8031259948
 C          2.5584272705       -0.8047753700       -1.0032281787
 C          1.2602464565       -1.0475523196       -0.5771439690
 H          0.5046100164       -0.2861191229       -0.7251097370
 N          2.8973133300        0.4274878575       -1.6160624501
 S          3.6439363643        1.5193489694       -0.5872176530
 O          3.8085171053        2.7387367047       -1.3443228223
 O          4.8437829425        0.9109409563       -0.0744166098
 C          2.4649829201        1.7699346540        0.7265601106
 C          2.3871895059        0.8362433369        1.7410971317
 C          1.4065471491        0.9824992754        2.7091686436
 C          0.5287896692        2.0535271506        2.6486058237
 C          0.6222286776        2.9841068668        1.6246054720
 C          1.5926563653        2.8368926551        0.6467354905
 H          1.6977285290        3.5345081300       -0.1690130416
 H         -0.0598550792        3.8186123585        1.5809074192
 H         -0.2356337150        2.1557794525        3.4030170489
 H          1.3205931649        0.2569918158        3.5017527613
 H          3.0925504318        0.0211112289        1.7598643555
 H          2.1037056525        0.8805089671       -2.0481250060
 H          4.5580334613       -1.5332098491       -1.1146000728
 H          3.9777291970       -3.6969519412       -0.0351900027
 H          1.6697709055       -4.1418177725        0.6694170017
 H         -0.5026334874       -2.3602110582        1.5950458641
 C         -0.9332260775       -3.9333934640        0.2095075757
 C         -0.7727171538       -5.0160967922        1.2333086806
 C         -2.1355879836       -4.4801858673        0.9178941971
 H         -2.8247189556       -5.0990713501        0.3632699411
 H         -2.6131299183       -3.8402513667        1.6457444055
 H         -0.5229554705       -6.0105988151        0.8954169960
 H         -0.3413989100       -4.7497513043        2.1867037615
 H         -0.8105175182       -4.1963289901       -0.8349931544
