  62
        -98.94339328
 C          1.9491810713        0.8567583701        0.0464972414
 C          2.2405113797       -0.1139041649        1.0325497728
 C          2.5745828795       -1.4548603851        0.5373501632
 C          2.5417721642       -1.6927641256       -0.7867461831
 C          2.9025266274       -2.9991911585       -1.4317506414
 C          4.3933411476       -3.0477331009       -1.7955320954
 C          5.3213191916       -2.6336290739       -0.6535676969
 H          6.3468744314       -2.7333912856       -1.0152210145
 H          5.1596920057       -1.5767786902       -0.4295969363
 C          5.1502308270       -3.4546562203        0.6320703535
 H          6.1385889291       -3.7211732488        1.0121186669
 H          4.6256283077       -4.3847062719        0.4107942547
 C          4.4229980453       -2.7210588068        1.7604740532
 H          4.8882916018       -1.7457052820        1.9237030226
 H          4.5462640257       -3.3006614256        2.6791895248
 C          2.9178071637       -2.5060770740        1.5552242677
 H          2.4385359252       -3.4549518385        1.3042127976
 H          2.4978109791       -2.1525976078        2.5019237807
 H          4.6369719321       -4.0623237342       -2.1156885259
 H          4.5649046077       -2.3737804482       -2.6378544075
 H          2.6545176849       -3.8124741227       -0.7523826632
 H          2.3092659919       -3.1061241348       -2.3414300123
 O          2.2215994291       -0.7442329116       -1.7033890376
 C          1.9188004851        0.5516334492       -1.3139399395
 O          1.6499791066        1.3218353037       -2.2558497442
 O          2.2249510075        0.1321986182        2.2710408187
 C          1.5942141310        2.2650289493        0.4805551429
 C          0.2115507125        2.6465184002        0.0086715352
 C         -0.1218773125        3.9423004763       -0.3664861167
 C         -1.4123230763        4.2462791831       -0.7641240359
 C         -2.3932851446        3.2733458019       -0.7951159923
 C         -2.0688850820        1.9714300447       -0.4265191869
 C         -0.7798946658        1.6742360481       -0.0166907694
 H         -0.5435513655        0.6618330725        0.2790217478
 N         -3.0315356340        0.9521038098       -0.4990494386
 S         -2.8600672418       -0.4531762012        0.4086087972
 O         -2.6380923040       -0.1312374202        1.8015627480
 O         -1.8789307781       -1.3034799807       -0.2197070169
 C         -4.4876267458       -1.1497870968        0.1963026998
 C         -5.4407296539       -0.9627397673        1.1795883066
 C         -6.7118034668       -1.4819065016        0.9890476943
 C         -7.0076361894       -2.1724502501       -0.1765633090
 C         -6.0404488496       -2.3529858820       -1.1543766124
 C         -4.7674158757       -1.8374533422       -0.9695204115
 H         -3.9804502026       -1.9588988332       -1.6958107610
 H         -6.2727016214       -2.8928807014       -2.0581323704
 H         -7.9972406855       -2.5754343892       -0.3228819058
 H         -7.4645029535       -1.3460122664        1.7487206999
 H         -5.1614473725       -0.4263689592        2.0721508212
 H         -3.9825413094        1.2928338729       -0.5075328777
 H         -3.3973028240        3.5106783877       -1.1113819590
 H         -1.6573074704        5.2570661704       -1.0530299901
 H          0.6302931101        4.7139454132       -0.3489126634
 H          1.5785579139        2.2364288055        1.5817154461
 C          2.6663442855        3.2391751060        0.0334277733
 C          3.0140903611        4.4310154005        0.8731162294
 C          3.9640879984        3.2762235997        0.7818881325
 H          4.8794000773        3.3993612362        0.2227989491
 H          4.0585809462        2.6216174192        1.6363399642
 H          3.2810094165        5.3513274463        0.3757657383
 H          2.4734277891        4.5665961984        1.7977250011
 H          2.7069137123        3.3396206613       -1.0455286113
