  62
        -98.94318564
 C         -0.7821954011       -1.8891267622        0.1708401421
 C         -1.4465629252       -1.1523267515        1.1763716779
 C         -2.6995538144       -0.4832259906        0.7851928028
 C         -3.1360432469       -0.6075475461       -0.4802433993
 C         -4.3409360675        0.0427738931       -1.1024183914
 C         -3.9555546937        1.3777266907       -1.7641584034
 C         -4.0361129780        2.5945690633       -0.8447792346
 H         -3.6454214344        3.4478303678       -1.4041205008
 H         -5.0820183369        2.8026118914       -0.6071763575
 C         -3.2434230972        2.4632316615        0.4576207755
 H         -3.0438514925        3.4694271866        0.8327616540
 H         -2.2754447686        2.0100158735        0.2336079512
 C         -3.9852355047        1.6639772870        1.5395220135
 H         -3.9926324195        2.2383538753        2.4683954750
 H         -5.0268322339        1.5476990547        1.2400618549
 C         -3.3902023910        0.2894032998        1.8763274733
 H         -2.6305499940        0.4041811613        2.6563233982
 H         -4.1778877905       -0.3422888967        2.3012819604
 H         -4.6136200872        1.5509466024       -2.6184798728
 H         -2.9347772564        1.2874201003       -2.1469439407
 H         -4.6970598800       -0.6403995857       -1.8764130920
 H         -5.1291607050        0.1817919324       -0.3679635008
 O         -2.4742902285       -1.3427056693       -1.4157543122
 C         -1.2774542602       -1.9770357236       -1.1300625149
 O         -0.7703239651       -2.5802651445       -2.0952800201
 H          0.6340430652       -0.0438590400       -0.4997618629
 C          1.5350925935       -0.5859808104       -0.7352083896
 C          1.6594412521       -1.9075278104       -0.3329587536
 C          2.8182222006       -2.5941979228       -0.6773253418
 C          3.8072417135       -1.9689546626       -1.4168477652
 C          3.6730659106       -0.6526922328       -1.8210322843
 C          2.5186532922        0.0433930114       -1.4804600259
 N          2.3221848923        1.3676959335       -1.8874213038
 S          1.2947953205        2.3985660804       -1.0761201846
 O         -0.0789035952        2.0058116571       -1.2659038133
 O          1.6518169848        3.7088061060       -1.5780139871
 C          1.7639461806        2.2709798524        0.6396185664
 C          3.0423330148        2.6652454245        0.9855151781
 C          3.4489375020        2.5434704180        2.3036652484
 C          2.5773011515        2.0250741802        3.2501447214
 C          1.2955871159        1.6410784118        2.8897147280
 C          0.8826567024        1.7681103843        1.5731371289
 H         -0.1075642154        1.4695045460        1.2667779625
 H          0.6131855169        1.2242891806        3.6132935291
 H          2.8967144628        1.9203668953        4.2749902443
 H          4.4434243415        2.8466858969        2.5888395970
 H          3.6894213291        3.0695999061        0.2243281995
 H          3.1153095120        1.8323313303       -2.3007873889
 H          4.4427340713       -0.1721392005       -2.4047382731
 H          4.6987274690       -2.5158673691       -1.6836627488
 H          2.9415392140       -3.6212020957       -0.3743587357
 C          0.5547327164       -2.5273699542        0.4913599874
 H          0.7476312990       -2.2851785932        1.5482380380
 C          0.4858973788       -4.0343549022        0.3439916244
 C          1.2602435833       -4.9274171086        1.2657727991
 C         -0.2292484008       -4.8305349395        1.3932723997
 H         -0.8339537667       -5.6688782300        1.0816951490
 H         -0.6372121964       -4.2868199381        2.2329450366
 H          1.8612092288       -4.4594091197        2.0308147495
 H          1.6799078443       -5.8388250191        0.8671809311
 H          0.3630138276       -4.3435755137       -0.6878584946
 O         -1.0034610319       -1.0434414219        2.3527536402
