  62
        -98.94497994
 C          2.0529099714        1.3410335397        0.0295136177
 C          2.6313689576        0.6647437788        1.1299764741
 C          3.8145247957       -0.1492802202        0.8321690279
 C          4.2803318976       -0.2127313480       -0.4287741705
 C          5.4907438893       -0.9805193372       -0.8865046369
 C          5.2149456514       -2.4611394749       -1.1823277358
 C          4.9826995876       -3.3379339183        0.0488928418
 H          5.0159944701       -4.3764964294       -0.2862672547
 H          5.8024980682       -3.1970286401        0.7539775191
 C          3.6435308771       -3.0918387498        0.7580334099
 H          2.9711726867       -2.5511119000        0.0871286727
 H          3.1679428498       -4.0498643850        0.9811919897
 C          3.7566363625       -2.3234138396        2.0750517704
 H          2.7496717417       -2.1776245516        2.4749356263
 H          4.3211557398       -2.9171557608        2.7973312941
 C          4.4209245065       -0.9459280249        1.9479788657
 H          5.4940109708       -1.0589577804        1.7965324752
 H          4.2535735128       -0.3977910832        2.8783725837
 H          4.3504071741       -2.5296590901       -1.8469662429
 H          6.0802529219       -2.8525586903       -1.7221345577
 H          6.2815060451       -0.8983503451       -0.1403437367
 H          5.8306400304       -0.5035968093       -1.8082845522
 O          3.6928684579        0.4483837805       -1.4606640186
 C          2.5529116602        1.2172388779       -1.2671040860
 O          2.0982786818        1.7281899172       -2.3071641436
 O          2.1765580553        0.7339197931        2.3041495265
 C          0.8132846965        2.1869944810        0.2606409316
 C         -0.3583132725        1.5776527119       -0.4698930258
 C         -1.1790769051        2.2835360364       -1.3384254855
 C         -2.2254960207        1.6477160211       -1.9858728969
 C         -2.4835826966        0.3066670911       -1.7737179576
 C         -1.6818740695       -0.4038570517       -0.8878826070
 C         -0.6350092043        0.2342130520       -0.2419225024
 H         -0.0088028299       -0.3216042619        0.4451358766
 N         -1.9486638980       -1.7615908998       -0.6460630175
 S         -3.5423146400       -2.2225053467       -0.4256275048
 O         -3.4829849915       -3.3952492568        0.4186436808
 O         -4.1768261742       -2.4040931303       -1.7075549172
 C         -4.3133199300       -0.8655403285        0.4396092583
 C         -3.7887114573       -0.4869119603        1.6595662491
 C         -4.3580465047        0.5827930715        2.3307784094
 C         -5.4375863984        1.2517157772        1.7740265450
 C         -5.9567781433        0.8553540194        0.5515880578
 C         -5.3895695394       -0.2124521089       -0.1254663346
 H         -5.7585046862       -0.5517697344       -1.0796887032
 H         -6.7974944362        1.3758920439        0.1222054563
 H         -5.8758177509        2.0863261359        2.2980159492
 H         -3.9547442397        0.8919620479        3.2818249845
 H         -2.9510282417       -1.0289622942        2.0689352373
 H         -1.3427960264       -2.1855310034        0.0404989423
 H         -3.2824067903       -0.2050684967       -2.2854787478
 H         -2.8469864131        2.2051215801       -2.6696835316
 H         -0.9933161083        3.3288974804       -1.5199796258
 H          0.6129983098        2.1157717280        1.3401247711
 C          1.0717724391        3.6358489648       -0.0907653533
 C          0.2837587719        4.7215338273        0.5773645258
 C          1.7271346888        4.5205968252        0.9256544863
 H          2.4485898850        5.2485057775        0.5860066437
 H          1.9684625293        4.0832130046        1.8835675406
 H          0.0138743992        5.5928879193        0.0003076222
 H         -0.4579994189        4.4251701571        1.3032451553
 H          1.3576185174        3.7703756775       -1.1275905982
