  62
        -98.93374893
 C         -1.9814235204       -1.4845486796        0.5852886901
 C         -1.9181013398       -0.1697765197        1.1111133904
 C         -3.0302994994        0.7396069309        0.7907290106
 C         -4.0417487396        0.2911712415        0.0241721706
 C         -5.3227267694        0.9593586621       -0.4307975193
 C         -5.5112037387        2.4661914122       -0.2780364090
 C         -4.6119802083        3.3163656620       -1.1760737289
 H         -4.9532549884        3.2068297023       -2.2086746389
 H         -4.7384467178        4.3639350320       -0.8943769987
 C         -3.1258382485        2.9674825913       -1.1455157590
 H         -2.6156987682        3.6251349612       -1.8545759989
 H         -2.9825318290        1.9437439013       -1.4973278792
 C         -2.4411356583        3.1263781907        0.2102899110
 H         -2.5839720979        4.1449565607        0.5763803312
 H         -1.3709569884        2.9649759302        0.0582851409
 C         -2.8984178687        2.1450572007        1.3017682709
 H         -2.1251019587        2.1165918902        2.0749102808
 H         -3.8208002986        2.4759369010        1.7725385010
 H         -6.5477541486        2.6799546027       -0.5529668989
 H         -5.3977656485        2.7543531220        0.7629203311
 H         -5.4448767895        0.6872650824       -1.4841347593
 H         -6.1287263296        0.4527314424        0.1116957107
 O         -4.0608698103       -0.9839753484       -0.4597086397
 C         -3.0332399707       -1.8922948189       -0.2325407899
 O         -3.2015248412       -2.9839719088       -0.8045221301
 O         -0.9644091696        0.2244268597        1.8346645104
 C         -0.7979025008       -2.3791788902        0.9078324499
 C          0.3465582193       -2.0175914205       -0.0045157100
 C          0.1666205793       -1.9501941602       -1.3825474400
 C          1.2126927294       -1.5808545605       -2.2080358000
 C          2.4519766596       -1.2631526412       -1.6787980700
 C          2.6377577596       -1.3139324615       -0.3037336300
 C          1.5874743395       -1.6959850912        0.5223957100
 H          1.7326908495       -1.7228578915        1.5935465199
 N          3.8914987698       -0.9940504422        0.2475745000
 S          4.6315175504        0.4470427575       -0.1753167298
 O          5.0086995003        0.3978070376       -1.5648555898
 O          5.7073974505        0.6043099469        0.7757418602
 C          3.3974069710        1.7069540881        0.0833914105
 C          2.5771309211        2.0848384586       -0.9601132194
 C          1.5969703316        3.0364130690       -0.7279924192
 C          1.4540904019        3.5891351089        0.5351214509
 C          2.2838025817        3.1958216183        1.5735611708
 C          3.2629418213        2.2426369079        1.3488909706
 H          3.9353751212        1.9181250974        2.1268302605
 H          2.1669892220        3.6258678582        2.5552530809
 H          0.6923299122        4.3321682792        0.7124056511
 H          0.9474294617        3.3419809995       -1.5330355091
 H          2.7232367109        1.6403829387       -1.9308139895
 H          3.9314082598       -1.1152636524        1.2495348100
 H          3.2741537397       -0.9688284114       -2.3106748600
 H          1.0627455194       -1.5375924803       -3.2764398800
 H         -0.8037379209       -2.1873395197       -1.7952189300
 H         -0.4989138907       -2.0985908005        1.9309002000
 C         -1.1119287215       -3.8658481900        0.9230364397
 C         -0.6315709020       -4.8240777701       -0.1208375405
 C         -0.0278098920       -4.8504746506        1.2493864494
 H         -0.2578594623       -5.6773950006        1.9038426993
 H          0.9760500582       -4.4668959611        1.3564698195
 H         -1.3009113824       -5.6185459397       -0.4130843106
 H         -0.0327880619       -4.4416502102       -0.9324532605
 H         -2.0927464216       -4.0681167897        1.3394153497
