  62
        -98.94350007
 C          1.4869804441        0.9323405064        0.8774263802
 C          2.0660716482        0.5137573476       -0.3470299708
 C          2.5893790027       -0.8607303655       -0.3676086849
 C          2.4031038570       -1.6681086318        0.6906949762
 C          2.9100592576       -3.0774544401        0.8394379875
 C          2.0338049685       -4.1429791225        0.1682630295
 C          2.1122041835       -4.1817334240       -1.3581417001
 H          3.1573194270       -4.2169731856       -1.6682668541
 H          1.6447895001       -5.1147827103       -1.6795700032
 C          1.4046093093       -3.0146450318       -2.0595314861
 H          0.6978640004       -2.5355590281       -1.3783784742
 H          0.8112538021       -3.3953829012       -2.8946998251
 C          2.3339502575       -1.9415414007       -2.6256556283
 H          1.7075603383       -1.1410009670       -3.0280809881
 H          2.9224337811       -2.3593242965       -3.4466822679
 C          3.2973370346       -1.3244099775       -1.6048713655
 H          4.0778786991       -2.0411818273       -1.3467167988
 H          3.7636953503       -0.4500130014       -2.0666691621
 H          0.9953149555       -3.9899133455        0.4717829425
 H          2.3527165813       -5.1150606424        0.5519574662
 H          2.9411110934       -3.2823923785        1.9119433655
 H          3.9249115065       -3.1417799707        0.4449011768
 O          1.7307581420       -1.2659733883        1.8024965364
 C          1.2642226064        0.0341173448        1.9235673933
 O          0.6707730722        0.2612066310        2.9969548175
 O          2.1773186118        1.2434985518       -1.3651099603
 C          0.9288526974        2.3338259279        1.0715157390
 C         -0.0067326859        2.6456206924       -0.0695914076
 C          0.1166466954        3.7358282436       -0.9188893263
 C         -0.7831713225        3.9122833850       -1.9566287321
 C         -1.8030743333        3.0050125654       -2.1783230320
 C         -1.9349202799        1.9109020570       -1.3301866114
 C         -1.0562166606        1.7582449630       -0.2728141231
 H         -1.1604383055        0.9113244785        0.3900534423
 N         -2.9530334368        0.9604132652       -1.5063959910
 S         -2.6019178066       -0.6546657424       -1.2263863805
 O         -1.2314699554       -0.9731027231       -1.5441001514
 O         -3.6127438981       -1.3742975430       -1.9746983027
 C         -2.9086433332       -0.8869345002        0.5110598806
 C         -1.9530426090       -1.5071281931        1.2904831617
 C         -2.2024489571       -1.6970683653        2.6397347174
 C         -3.4039950243       -1.2684597539        3.1820834020
 C         -4.3584620004       -0.6538409176        2.3852223152
 C         -4.1123897571       -0.4600489429        1.0355998523
 H         -4.8274155224        0.0135720381        0.3838931066
 H         -5.2907206775       -0.3225821887        2.8136080855
 H         -3.5930731483       -1.4133208052        4.2339995721
 H         -1.4504126602       -2.1602144326        3.2583155844
 H         -1.0226939544       -1.8104454995        0.8335859024
 H         -3.5133280444        1.0837457794       -2.3373389743
 H         -2.4870364352        3.1339220180       -3.0035132367
 H         -0.6766133677        4.7606552988       -2.6158238742
 H          0.9291843944        4.4311632354       -0.7863512404
 H          0.3172440253        2.2619757422        1.9865670909
 C          1.9662791416        3.4134149013        1.3355969019
 C          3.2910383962        3.0751627504        1.9505856619
 C          3.2233993914        3.5550102493        0.5333200557
 H          3.5783545090        4.5520879201        0.3156057891
 H          3.3922228702        2.8474405573       -0.2619258711
 H          3.6933295904        3.7370424271        2.7028293152
 H          3.5067082239        2.0306704111        2.1251182818
 H          1.5042053202        4.3356082964        1.6751478793
