  62
        -98.94677080
 C         -0.3795621674       -1.9255148307        0.5409798506
 C         -1.0695181845       -1.9330240367       -0.6951639540
 C         -2.4335940094       -1.3927108215       -0.6635444649
 C         -2.9491271772       -0.9407211044        0.4942211799
 C         -4.3563488579       -0.4478579910        0.6998097634
 C         -4.5721907138        1.0289177737        0.3461810348
 C         -4.5288747994        1.3568350770       -1.1462535103
 H         -5.2239362126        0.7083004770       -1.6804403330
 H         -4.8878908847        2.3812404592       -1.2601768470
 C         -3.1331571804        1.2491795505       -1.7764448680
 H         -2.9427140126        2.1284237965       -2.3951421734
 H         -2.3747739840        1.2439679428       -0.9900275276
 C         -2.9355870721        0.0200430203       -2.6639447513
 H         -1.9035593189        0.0194237580       -3.0245487589
 H         -3.5960891947        0.0830115894       -3.5316797552
 C         -3.1892887956       -1.3171683778       -1.9552981395
 H         -4.2565860553       -1.4571117737       -1.7847911967
 H         -2.8279849894       -2.1224077989       -2.5995254252
 H         -5.5533575331        1.3152414570        0.7319767886
 H         -3.8185651896        1.6191207060        0.8679810083
 H         -5.0425592909       -1.0674292188        0.1213532314
 H         -4.5791691773       -0.5828532022        1.7605957486
 O         -2.2376085518       -0.9175419914        1.6537167299
 C         -0.9353140397       -1.3892060660        1.7012628486
 O         -0.3894510835       -1.2803485550        2.8193060012
 H          1.2593461965        0.1257819863        0.3360962346
 C          1.9297591034       -0.3935371247       -0.3332867764
 C          1.9386898893       -1.7830529606       -0.3410922483
 C          2.8048414841       -2.4373212850       -1.2068978341
 C          3.6313314158       -1.7124981343       -2.0480007543
 C          3.6330933417       -0.3305885913       -2.0224104469
 C          2.7769162127        0.3346304494       -1.1512408389
 N          2.7539877358        1.7360540740       -1.0937179765
 S          2.5954064017        2.5185421731        0.3784850637
 O          3.2794806322        3.7807923571        0.1882853557
 O          3.0636284364        1.6991418896        1.4703234652
 C          0.8545115898        2.8550168877        0.5309535724
 C          0.2971122758        3.7526308145       -0.3594786694
 C         -1.0399580468        4.0866761260       -0.2278633336
 C         -1.7950269475        3.5224601481        0.7894895498
 C         -1.2251007498        2.6139673662        1.6680215522
 C          0.1135337017        2.2759476623        1.5408882349
 H          0.5838316590        1.5738806508        2.2136710878
 H         -1.8076733308        2.1594568903        2.4549332596
 H         -2.8324820354        3.7970523174        0.8994606510
 H         -1.4901514284        4.7876164088       -0.9118255071
 H          0.9238103065        4.1828726783       -1.1226954716
 H          3.4288488565        2.1944382932       -1.6885919213
 H          4.2882367671        0.2331506710       -2.6691839068
 H          4.2927455214       -2.2323759333       -2.7245067782
 H          2.8301060180       -3.5142853906       -1.2289356389
 C          1.0223329415       -2.4998470710        0.6205247729
 H          1.3825370877       -2.2926074778        1.6398008369
 C          0.9766396618       -4.0001143627        0.4145755882
 C          2.0049779361       -4.8834145541        1.0525530262
 C          0.5984356859       -4.8761954483        1.5693614459
 H         -0.0262344853       -5.7366269435        1.3819732050
 H          0.4009603677       -4.3913129985        2.5147293933
 H          2.3456830027       -5.7537687790        0.5122096516
 H          2.7672769818       -4.4100796214        1.6531387250
 H          0.6000001279       -4.2735303876       -0.5643861458
 O         -0.5811656924       -2.3824894876       -1.7641361103
