  62
        -98.94020723
 C         -2.0528785754       -1.2219584727       -0.0140941509
 C         -2.3510602899       -0.0444470831       -0.7449090549
 C         -3.7720106224        0.3423654913       -0.7844648650
 C         -4.6880101666       -0.4185521799       -0.1608241051
 C         -6.1553481157       -0.1133239151       -0.0866212008
 C         -6.4872129020        0.7120420322        1.1644069375
 C         -5.5763980757        1.9234448925        1.3646857971
 H         -5.9219082671        2.4454980587        2.2596156808
 H         -4.5601275992        1.5775028088        1.5675669996
 C         -5.5503221573        2.9009181686        0.1813291748
 H         -5.6242793883        3.9197588011        0.5674699864
 H         -6.4185744859        2.7330927050       -0.4570776186
 C         -4.2784708090        2.8384205333       -0.6667692386
 H         -4.2699655849        3.7072696876       -1.3304778779
 H         -3.4008096700        2.9144551968       -0.0193722306
 C         -4.1221233687        1.5904612342       -1.5447668124
 H         -5.0267753047        1.4414992654       -2.1379606751
 H         -3.2874176576        1.7700591200       -2.2289006447
 H         -6.3944075982        0.0658092899        2.0403334620
 H         -7.5250861036        1.0426949941        1.0947953758
 H         -6.4548250261        0.4277307702       -0.9821222904
 H         -6.7014898075       -1.0572566569       -0.0437062423
 O         -4.3657062190       -1.5435266041        0.5266424886
 C         -3.0486592403       -1.9556129464        0.6387272671
 O         -2.8933433469       -2.9775195682        1.3363250690
 H          1.1834739791       -0.3455821619       -1.3629453521
 C          1.1557495958       -0.0090643120       -0.3383888067
 C          0.2818611641       -0.6061326245        0.5564735706
 C          0.2404820185       -0.1319693463        1.8637740441
 C          1.0497291051        0.9157769477        2.2629629100
 C          1.9122131971        1.5174203645        1.3638229319
 C          1.9550369164        1.0559239235        0.0550420305
 N          2.8202357650        1.6730303494       -0.8692034387
 S          4.4457189484        1.7413488301       -0.4835142379
 O          4.6516095885        2.7072532087        0.5659091824
 O          5.1285312402        1.9971614721       -1.7313734493
 C          4.8261224308        0.1032174501        0.1093184242
 C          4.8246901776       -0.1515777817        1.4656592891
 C          5.0408869410       -1.4489077980        1.9025159273
 C          5.2509683068       -2.4629521430        0.9810595932
 C          5.2528532154       -2.1899755187       -0.3785418981
 C          5.0326676206       -0.8960089362       -0.8212838887
 H          5.0327781760       -0.6411592869       -1.8690098530
 H          5.4199759007       -2.9805526609       -1.0924934983
 H          5.4161679855       -3.4721329422        1.3241244839
 H          5.0413757953       -1.6644346103        2.9588194208
 H          4.6627954943        0.6649125089        2.1496009227
 H          2.6908875469        1.3472060087       -1.8159410398
 H          2.5452922454        2.3410807902        1.6523843691
 H          1.0044808484        1.2725244924        3.2809424563
 H         -0.4433360373       -0.5920530173        2.5643183409
 C         -0.6319818431       -1.7366047324        0.1559494278
 H         -0.6887488490       -2.4395691264        1.0023020162
 C         -0.1033693808       -2.5323314893       -1.0287739807
 C         -1.0054447613       -3.4616298192       -1.7832471545
 C         -0.4716908518       -2.2305715377       -2.4490202541
 H          0.2872036902       -2.3501645485       -3.2089695277
 H         -1.1465723146       -1.4100529296       -2.6341373273
 H         -0.6187694236       -4.4227108079       -2.0866531848
 H         -2.0481588984       -3.4798018835       -1.5008098901
 H          0.9100626997       -2.8812270355       -0.8537884651
 O         -1.4960086449        0.6559896458       -1.3448248288
