  62
        -98.94471407
 C         -1.7627501751       -0.3832521977        0.1846584940
 C         -2.8839188975       -0.3776670149        1.0582019244
 C         -4.0035023975        0.4899368609        0.6810508688
 C         -3.9152334923        1.2432620216       -0.4296116300
 C         -4.9594861386        2.1980143097       -0.9407494785
 C         -6.0601322876        1.5300702184       -1.7764229661
 C         -7.0576361452        0.6856447920       -0.9824148925
 H         -7.4541704755        1.2757918695       -0.1556130925
 H         -7.8909868312        0.4615958577       -1.6513058792
 C         -6.4853818502       -0.6346999234       -0.4477535577
 H         -7.1892222356       -1.4450053460       -0.6506542171
 H         -5.5614750088       -0.8729882974       -0.9797001049
 C         -6.2066930014       -0.6427711694        1.0553791834
 H         -5.7709746685       -1.6100648255        1.3179479125
 H         -7.1458039563       -0.5370483636        1.6029835872
 C         -5.2417609705        0.4539474003        1.5247467115
 H         -4.9391492975        0.2295762890        2.5504823934
 H         -5.7390801674        1.4236687144        1.5113744318
 H         -5.5892506513        0.9118857436       -2.5442865550
 H         -6.6120568573        2.3253186800       -2.2828311479
 H         -5.4098775725        2.7311759086       -0.1029157138
 H         -4.4380408454        2.9205251332       -1.5724410779
 O         -2.8173396152        1.2320730313       -1.2275269588
 C         -1.7273173930        0.4155090455       -0.9581940745
 O         -0.8192241204        0.5174434345       -1.8090159271
 O         -2.9443261128       -1.0737635699        2.1060733400
 C         -0.6219610025       -1.3141079481        0.5595088978
 C          0.5251338883       -0.5850297960        1.2164510572
 C          0.9653314829       -0.9379805330        2.4864847807
 C          2.0485979959       -0.2967917754        3.0630934770
 C          2.7126205913        0.7113687824        2.3872017343
 C          2.2724048626        1.0769592126        1.1222546964
 C          1.1942840730        0.4264491889        0.5421645153
 H          0.8643751558        0.7131073817       -0.4453071670
 N          2.9512383893        2.0967916374        0.4148824211
 S          4.5119587197        1.6899000878       -0.0457156719
 O          5.3513607999        1.6687825757        1.1253010928
 O          4.8799659024        2.6315680209       -1.0784548132
 C          4.3578857842        0.0459385724       -0.7188506316
 C          3.9376555246       -0.0915218789       -2.0264789287
 C          3.7409232583       -1.3641915846       -2.5367899466
 C          3.9564060814       -2.4704615583       -1.7296270703
 C          4.3693446193       -2.3153593307       -0.4154769319
 C          4.5716383740       -1.0451364771        0.0990484596
 H          4.8962685559       -0.8803395778        1.1131637897
 H          4.5303970254       -3.1782612416        0.2101619137
 H          3.8047650852       -3.4604752537       -2.1308706805
 H          3.4149265748       -1.4874155530       -3.5572769561
 H          3.7838075303        0.7935120214       -2.6234257378
 H          2.4383273579        2.3993058483       -0.4023689268
 H          3.5670377077        1.2133027479        2.8117183181
 H          2.3794029528       -0.5842297443        4.0494322869
 H          0.4466471556       -1.7160907802        3.0268820735
 H         -1.0507012046       -1.9996814559        1.3026453091
 C         -0.1048911747       -2.1340069399       -0.6079556410
 C          0.5771214131       -3.4386793746       -0.3323888610
 C         -0.7847075840       -3.4220078452       -0.9578613147
 H         -0.8812035039       -3.6858252392       -2.0002474867
 H         -1.6289820878       -3.7211004589       -0.3536032906
 H          1.4210752485       -3.7136294208       -0.9446269197
 H          0.6569483948       -3.7530422442        0.6968768953
 H          0.2705597762       -1.5303090804       -1.4239248240
