  62
        -98.94557896
 C         -2.3434222197       -0.0294324489       -0.1286812399
 C         -1.5311576599       -0.5573896196        0.8990591199
 C         -1.2088299609       -1.9926532398        0.8175744896
 C         -1.6046938715       -2.6942643994       -0.2605494504
 C         -1.4362322125       -4.1564325195       -0.6167017107
 C         -0.4657055230       -5.0438564702        0.1571383091
 C          1.0091377772       -4.7038143812       -0.0483070711
 H          1.6017147668       -5.3621414717        0.5914512687
 H          1.2766850269       -4.9178267012       -1.0862433212
 C          1.3969625182       -3.2554735515        0.2406115590
 H          2.4775528482       -3.1623229422        0.0930733189
 H          0.9279089085       -2.5858897611       -0.4840994508
 C          1.0764437887       -2.7695576115        1.6522959691
 H          1.5814826894       -1.8100302618        1.7838428092
 H          1.4884346984       -3.4691399018        2.3826380290
 C         -0.4166884811       -2.5593341305        1.9622567094
 H         -0.8789914816       -3.4805077603        2.3121051693
 H         -0.4906662605       -1.8275783906        2.7721008995
 H         -0.7115110929       -5.0417051802        1.2148328191
 H         -0.6220567838       -6.0637598201       -0.2049771211
 H         -2.4381836328       -4.5955864388       -0.5502070706
 H         -1.1636362227       -4.1702453195       -1.6771417107
 O         -2.3337604613       -2.1234125588       -1.2645406502
 C         -2.7231962604       -0.7981455085       -1.2256080400
 O         -3.3956601003       -0.4269054179       -2.2109886498
 H         -0.6184616792        1.0695183501       -1.6718075900
 C         -0.4697811286        1.9140465599       -1.0148434199
 C         -1.4752308982        2.2799268105       -0.1292169297
 C         -1.2666819573        3.3817713102        0.6903991604
 C         -0.0681052469        4.0736776994        0.6405329703
 C          0.9525150627        3.6680954389       -0.2004408099
 C          0.7483711419        2.5723156991       -1.0313403000
 N          1.7608635314        2.0902893586       -1.8868191503
 S          2.2920594504        0.5193599182       -1.6302427906
 O          3.3605090601        0.3259290976       -2.5873224308
 O          1.1858351798       -0.3976250411       -1.7159002605
 C          2.9804361507        0.5534236975        0.0156831193
 C          4.3553252807        0.5721160666        0.1557845091
 C          4.9021040710        0.6691936160        1.4247270590
 C          4.0679524712        0.7601518964        2.5292185292
 C          2.6912119912        0.7462025574        2.3716667594
 C          2.1359033309        0.6397971079        1.1047121595
 H          1.0660524709        0.6153060586        0.9683287396
 H          2.0321207814        0.8132574577        3.2226284195
 H          4.4913389014        0.8409687060        3.5178976691
 H          5.9731084610        0.6767852753        1.5477939689
 H          4.9624470705        0.5018118963       -0.7322962410
 H          2.5622614218        2.7030212081       -1.9554740403
 H          1.8981273731        4.1887847883       -0.2147461300
 H          0.0810987338        4.9280106193        1.2828942604
 H         -2.0390823070        3.6939285407        1.3740313105
 C         -2.7296670787        1.4397013213       -0.1138361597
 H         -3.2751231188        1.6191307618       -1.0522420696
 C         -3.6460329284        1.7389244818        1.0538477205
 C         -4.6571584376        2.8405976725        0.9576594808
 C         -5.1025019386        1.4101381528        0.9317201007
 H         -5.6155941787        1.0111852430        1.7937205707
 H         -5.4382499690        0.9930373731       -0.0069798393
 H         -4.8699745871        3.4246416825        1.8402737609
 H         -4.7017819174        3.3999417526        0.0353572409
 H         -3.1715456783        1.5585000913        2.0113124304
 O         -1.0986624393        0.1362897100        1.8578506899
