  62
        -98.94417956
 C          2.6437222571       -1.0899235571       -0.1962295605
 C          2.7548093690       -0.2856820985        0.9639923242
 C          3.5595058098        0.9362479700        0.8191143506
 C          4.1312233608        1.2140353205       -0.3667952729
 C          4.9210455994        2.4541768759       -0.6683680649
 C          4.0175285668        3.5662817838       -1.2198684324
 C          2.7563957552        3.8069958618       -0.3896784258
 H          2.2114811027        4.6298867317       -0.8576779244
 H          2.1158536656        2.9236279375       -0.4490877452
 C          3.0208241383        4.1406703377        1.0852639066
 H          4.0564490993        4.4577779371        1.2125271300
 H          2.3863032744        4.9816262155        1.3725276834
 C          2.7168587973        2.9997300068        2.0581198607
 H          1.7108205026        2.6151565849        1.8711221061
 H          2.7282990776        3.4064576447        3.0726696900
 C          3.6957834453        1.8192229979        2.0274770067
 H          4.7194276987        2.1861854676        2.1243111924
 H          3.4740763213        1.1824987477        2.8888080300
 H          4.5992818714        4.4880375941       -1.2761875668
 H          3.7133542530        3.2946143937       -2.2336457710
 H          5.4179765556        2.7917240392        0.2389214304
 H          5.6765919140        2.2081114658       -1.4163460289
 O          4.0065347895        0.4127231162       -1.4567745796
 C          3.2497789455       -0.7470710486       -1.4035987741
 O          3.1895736090       -1.3731239785       -2.4826133252
 H          0.3292382246       -0.3849253511       -1.1362902392
 C         -0.2314759420       -0.9612947597       -0.4090127967
 C          0.3864072005       -2.0357053125        0.2197424772
 C         -0.3506879140       -2.7782396594        1.1324344417
 C         -1.6605008443       -2.4343519518        1.4203061820
 C         -2.2629349193       -1.3512004860        0.8081716237
 C         -1.5406542122       -0.6104923886       -0.1186485759
 N         -2.1410990010        0.4984390236       -0.7419993163
 S         -3.6331950747        0.2746661331       -1.4821116788
 O         -3.7936828149       -1.0842861381       -1.9454329824
 O         -3.7141969243        1.3110766837       -2.4882815808
 C         -4.8087686964        0.6251196143       -0.1920952931
 C         -4.7440812481        1.8568190624        0.4293695735
 C         -5.6555611710        2.1489722707        1.4313371169
 C         -6.6124993345        1.2112823345        1.7904396545
 C         -6.6666097689       -0.0192945009        1.1540287693
 C         -5.7570242455       -0.3183948750        0.1515036240
 H         -5.7571687877       -1.2636452175       -0.3674745641
 H         -7.4115731871       -0.7464659824        1.4343197443
 H         -7.3203780892        1.4414401714        2.5709491125
 H         -5.6164123466        3.1048596085        1.9284115140
 H         -3.9877426330        2.5580110540        0.1181426789
 H         -1.5182086644        1.0018454280       -1.3569983679
 H         -3.2793310806       -1.0756534120        1.0368856007
 H         -2.2188108965       -3.0164921149        2.1373642558
 H          0.1015841076       -3.6245002316        1.6225943258
 C          1.8135509923       -2.3596373843       -0.1542634651
 H          1.8107083603       -2.7564020568       -1.1808096990
 C          2.4627760308       -3.3786352048        0.7592649674
 C          2.3008899166       -4.8444473373        0.4944455958
 C          3.6185188186       -4.1779056818        0.2398483626
 H          4.4423039551       -4.3871321711        0.9055466553
 H          3.9182937777       -4.0063119446       -0.7841689171
 H          1.7086209667       -5.1365504847       -0.3597333139
 H          2.2233710144       -5.5156798667        1.3364170955
 H          2.5085214442       -3.0432864025        1.7888165878
 O          2.2091030718       -0.5689374832        2.0611840837
