  62
        -98.94090213
 C         -1.9391354799       -0.2729442300        0.1470759690
 C         -3.0256629402       -0.9569401098        0.7526982787
 C         -4.2834744202       -0.2089979096        0.8711617282
 C         -4.3256373598        1.0712218304        0.4607378181
 C         -5.5535502497        1.9337547506        0.4676485876
 C         -6.3146817693        1.8246363406       -0.8612419926
 C         -6.5588879594        0.3862769906       -1.3182318825
 H         -7.1281148991        0.4332708606       -2.2491426227
 H         -5.5995695694       -0.0809524396       -1.5525705122
 C         -7.3113891298       -0.4842635692       -0.3020698026
 H         -7.8142257600        0.1503381110        0.4285877871
 H         -8.0847195798       -1.0476818591       -0.8284565228
 C         -6.4370423202       -1.5041738892        0.4297967777
 H         -5.8625816101       -2.0831632194       -0.2978898321
 H         -7.0950904405       -2.2014102891        0.9550981676
 C         -5.4632665704       -0.9262481193        1.4643911280
 H         -6.0034729405       -0.2743593591        2.1539270777
 H         -5.0491968308       -1.7627414793        2.0350104082
 H         -7.2701268092        2.3416386508       -0.7550676129
 H         -5.7361714990        2.3359009404       -1.6343628524
 H         -6.1972646800        1.6345497808        1.2926344775
 H         -5.2455741195        2.9701465606        0.6161450976
 O         -3.2499183695        1.7146184202       -0.0559825216
 C         -2.0320483796        1.0664357000       -0.2355384212
 O         -1.1509954993        1.7918451798       -0.7317992710
 H          1.3287581906        0.3356647093       -1.3395707401
 C          1.4346805703        0.3928193794       -0.2674931401
 C          0.5118610299       -0.2410542504        0.5495045597
 C          0.6541754695       -0.1250378603        1.9289842097
 C          1.6901456395        0.6088960796        2.4755479700
 C          2.6060202699        1.2453839594        1.6565741802
 C          2.4677672803        1.1416946993        0.2794083101
 N          3.4038210006        1.7836433990       -0.5565755596
 S          5.0054488105        1.3451559188       -0.3409114591
 O          5.5228945202        1.9792489488        0.8451248910
 O          5.6706326709        1.6751596385       -1.5812887589
 C          4.9416731901       -0.4224957312       -0.1116384190
 C          5.0364708996       -0.9552018611        1.1577199011
 C          4.8929897294       -2.3238835010        1.3212104112
 C          4.6538080996       -3.1303939311        0.2196173712
 C          4.5654312400       -2.5801578912       -1.0501798889
 C          4.7052470803       -1.2125358313       -1.2193262089
 H          4.6485738307       -0.7481376113       -2.1908951990
 H          4.3827344202       -3.2107970513       -1.9055441088
 H          4.5364375293       -4.1946362911        0.3503236813
 H          4.9624782190       -2.7551355310        2.3068123613
 H          5.2242676995       -0.2936851410        1.9871314111
 H          3.1540293409        1.7482154490       -1.5342666097
 H          3.4209315498        1.8242246193        2.0606813704
 H          1.7852187492        0.6896125597        3.5477805500
 H         -0.0656016707       -0.6150543301        2.5702175996
 C         -0.6377547000       -1.0417168902       -0.0037027806
 H         -0.7743597804       -1.9252687002        0.6408635695
 C         -0.3741168197       -1.5707890604       -1.4057755504
 C         -1.5056413495       -2.0417378403       -2.2682699607
 C         -0.7335618092       -0.8158657205       -2.6491670706
 H         -0.0636081689       -0.8775800607       -3.4948853004
 H         -1.2050368891        0.1480086096       -2.5386155909
 H         -1.3722179795       -2.9396004104       -2.8524490506
 H         -2.5079306796       -1.9140133401       -1.8857071211
 H          0.5382591502       -2.1585371206       -1.4441384001
 O         -2.9450513306       -2.1407309897        1.1756187788
