  62
        -98.93854072
 C          2.2517400962        0.7437297881       -0.0613624439
 C          3.2677259527        0.6095170589        0.9171258962
 C          4.1354451123       -0.5738855194        0.8091180101
 C          3.9102687388       -1.4668510281       -0.1696719621
 C          4.6334934420       -2.7621364847       -0.4420195194
 C          6.1649218832       -2.7548724618       -0.3350839215
 C          6.8386462028       -1.4340123558       -0.7349465370
 H          7.6311836929       -1.6444664364       -1.4554930024
 H          6.1168900276       -0.7797727691       -1.2269506592
 C          7.4665240367       -0.7006223721        0.4528226865
 H          8.2187015055       -0.0031074096        0.0766868177
 H          7.9826249455       -1.4300328128        1.0808594870
 C          6.4949434971        0.1037284758        1.3156295362
 H          6.1451596750        0.9792870321        0.7620829878
 H          7.0439984362        0.4729800763        2.1850621417
 C          5.2553648666       -0.6622636761        1.8058357004
 H          5.4986225732       -1.6942008749        2.0467096422
 H          4.8920321706       -0.1690998874        2.7114023555
 H          6.5286814909       -3.5583435764       -0.9778192995
 H          6.4599588727       -3.0097616380        0.6818296351
 H          4.3378624417       -3.0438942038       -1.4555926637
 H          4.2305626840       -3.5235364109        0.2323741553
 O          2.9067017122       -1.3102536516       -1.0784825258
 C          2.0588915094       -0.2136300163       -1.0557606490
 O          1.2057859155       -0.2169684618       -1.9651095332
 O          3.4389418236        1.4413488396        1.8469374870
 C          1.3318145632        1.9509922434        0.0245597191
 C         -0.0394505222        1.4671691751        0.4252169639
 C         -0.3060959959        1.2167456459        1.7687443479
 C         -1.5286578730        0.7067014815        2.1620850986
 C         -2.5080619428        0.4257692801        1.2246936999
 C         -2.2447037156        0.6542010281       -0.1185274726
 C         -1.0239878621        1.1892964777       -0.5095864044
 H         -0.8292428661        1.3493764578       -1.5581195823
 N         -3.2261758790        0.3613799200       -1.0807947160
 S         -4.0313019696       -1.1075147539       -0.9787280790
 O         -3.2236305777       -2.1260514169       -0.3481233099
 O         -4.4841809777       -1.3849701408       -2.3247312193
 C         -5.4480009948       -0.7344397621        0.0362936515
 C         -5.7381613050       -1.5234170186        1.1320607055
 C         -6.8522734839       -1.2214936741        1.8999996411
 C         -7.6529211066       -0.1420733800        1.5598220404
 C         -7.3495515827        0.6390152648        0.4545480533
 C         -6.2383434374        0.3416060251       -0.3179490353
 H         -5.9698211011        0.9213664422       -1.1850591979
 H         -7.9743252860        1.4777988648        0.1931254937
 H         -8.5183699457        0.0916027596        2.1595484132
 H         -7.0895334648       -1.8283540911        2.7590277615
 H         -5.0831916531       -2.3488751162        1.3621080578
 H         -2.9186220547        0.5310192434       -2.0279364563
 H         -3.4589670564        0.0151123153        1.5223546791
 H         -1.7223727375        0.5217229997        3.2077597226
 H          0.4664129485        1.4145173849        2.4987123118
 H          1.7316806316        2.5611183324        0.8455643912
 C          1.3478390429        2.7736294093       -1.2464567653
 C          0.7835467150        4.1619162248       -1.2277849919
 C          2.2633098586        3.9557928914       -1.3412765238
 H          2.7429969472        4.1601316323       -2.2868661644
 H          2.8787465272        4.1809192451       -0.4826702334
 H          0.2450192516        4.5117387804       -2.0951833281
 H          0.3927834700        4.5260657676       -0.2898623800
 H          1.2135364987        2.1822042749       -2.1441077480
