  62
        -98.93257586
 C         -2.5708458760       -0.9705783443        0.0779555655
 C         -2.8443310592        0.0161820675        1.0537402159
 C         -3.4019270353        1.2830517126        0.5575352940
 C         -3.6141616646        1.4313681560       -0.7631301829
 C         -4.0931282622        2.6884780565       -1.4320829340
 C         -2.9322564349        3.6973109896       -1.5470582477
 C         -3.1195796794        4.9717225258       -0.7233215794
 H         -2.1616153371        5.4957985097       -0.7098752115
 H         -3.8411798361        5.6171956457       -1.2282053354
 C         -3.5991892125        4.7723347387        0.7177502921
 H         -3.4303824196        5.7152063797        1.2422296653
 H         -4.6765110109        4.6008024399        0.7260706601
 C         -2.9173036883        3.6443527280        1.5028501782
 H         -1.9293309426        3.4329142903        1.0927297594
 H         -2.7684655647        3.9863975182        2.5291174259
 C         -3.7275328301        2.3364488847        1.5803586579
 H         -4.7959055678        2.5657252161        1.5411205121
 H         -3.5294323005        1.8599505940        2.5451640530
 H         -2.0116955783        3.1955894446       -1.2408632253
 H         -2.8003052910        3.9821862515       -2.5918338726
 H         -4.4549206739        2.4112762184       -2.4222626677
 H         -4.9176824528        3.1156238288       -0.8658266090
 O         -3.3335519230        0.4608065472       -1.6708918858
 C         -2.7984284931       -0.7585184680       -1.2817591222
 O         -2.5779335792       -1.5452704938       -2.2204437422
 O         -2.6242901623       -0.1520455159        2.2850037671
 C         -1.9728581637       -2.2942356953        0.5190178598
 C         -0.6020638895       -2.4663878147       -0.0898280614
 C         -0.1941737274       -3.6137981982       -0.7555360717
 C          1.0818865371       -3.6988972390       -1.2868019895
 C          1.9764935612       -2.6520529333       -1.1660160676
 C          1.5845071908       -1.5046352245       -0.4878261060
 C          0.3076179071       -1.4239168871        0.0454574359
 H          0.0021811466       -0.5287444192        0.5749293841
 N          2.4821952307       -0.4176503180       -0.3649589629
 S          3.9037665244       -0.6949758838        0.5096163841
 O          4.6065018229       -1.8029881462       -0.0820975665
 O          3.6035474938       -0.8110055544        1.9218934088
 C          4.7819995733        0.8219467727        0.1933326004
 C          5.3839548369        0.9857138043       -1.0394795126
 C          6.0490536862        2.1713656657       -1.3071158543
 C          6.0997709280        3.1680350623       -0.3435743347
 C          5.4907443592        2.9886623811        0.8890389837
 C          4.8229588886        1.8050394365        1.1626507998
 H          4.3415808112        1.6194754426        2.1096298324
 H          5.5332578660        3.7640494502        1.6369916245
 H          6.6190548735        4.0897359879       -0.5537207601
 H          6.5252627488        2.3145436080       -2.2636541601
 H          5.3246849034        0.1820599515       -1.7544680443
 H          2.0219823069        0.3809975575        0.0543253909
 H          2.9728131841       -2.7156152443       -1.5704618613
 H          1.3825302274       -4.5947653803       -1.8087974306
 H         -0.8761057057       -4.4408162299       -0.8651334504
 H         -1.8482247080       -2.2094833079        1.6093618925
 C         -2.9208291311       -3.4373396178        0.2268140203
 C         -2.8798945879       -4.6805810252        1.0627980298
 C         -4.0265150480       -3.7253875074        1.1960864753
 H         -4.9904981963       -4.0164851285        0.8068533130
 H         -4.0815400697       -3.1106918822        2.0828442510
 H         -3.0590989017       -5.6310041731        0.5832995577
 H         -2.1570191593       -4.7201524518        1.8637689726
 H         -3.1434298451       -3.5348537509       -0.8296247164
