  62
        -98.94368285
 C          1.7679984998        0.4977222898        0.4764557162
 C          2.9551870524        0.4814251831        1.2461447696
 C          4.2013002785        0.6936184839        0.5015799304
 C          4.1571090867        0.9065094568       -0.8264345429
 C          5.3406279923        1.1572535800       -1.7213081430
 C          6.0433218562       -0.1210797419       -2.1988612196
 C          6.8609930399       -0.8513249634       -1.1326666269
 H          7.4684551977       -1.5969699818       -1.6495026498
 H          7.5450168721       -0.1485809674       -0.6558791013
 C          6.0179707743       -1.5584259193       -0.0621859923
 H          6.4054048976       -2.5669387548        0.0996144379
 H          4.9907979507       -1.6643191720       -0.4191965370
 C          6.0001759180       -0.8567544659        1.2959888118
 H          5.3460593007       -1.4214901766        1.9655176585
 H          7.0047983152       -0.8622686606        1.7246157382
 C          5.4952394692        0.5914855683        1.2513415656
 H          5.3126611282        0.9226377781        2.2766201003
 H          6.2484489887        1.2390945453        0.8032957494
 H          5.2921590757       -0.7994270186       -2.6100636643
 H          6.7166082977        0.1612559275       -3.0115211626
 H          6.0583148498        1.7990554968       -1.2096940993
 H          4.9607059068        1.6880939798       -2.5967455371
 O          2.9920076091        0.9366707274       -1.5263197347
 C          1.7731239806        0.7118170994       -0.9020101402
 O          0.7919277885        0.7349985112       -1.6679702252
 O          2.9724623315        0.2956016379        2.4929369765
 C          0.4387692708        0.2594088378        1.1683852499
 C         -0.2449582804       -0.9499771846        0.5805575949
 C          0.4876947419       -2.1222527736        0.4082783545
 C         -0.0970439958       -3.2474250443       -0.1377000831
 C         -1.4295947182       -3.2336889971       -0.5119582504
 C         -2.1734113228       -2.0745197312       -0.3335695392
 C         -1.5800864977       -0.9428455099        0.2107333989
 H         -2.1745591062       -0.0550898891        0.3433209139
 N         -3.5177700718       -2.0213448817       -0.7239220061
 S         -4.6334543625       -1.1466886666        0.1579204507
 O         -4.3631162563       -1.2099309558        1.5754258524
 O         -5.9160248374       -1.6700456938       -0.2629003611
 C         -4.4778082565        0.5288749853       -0.4232003921
 C         -4.6746437853        1.5618675893        0.4719273118
 C         -4.5953354570        2.8688239205        0.0173455684
 C         -4.3227921639        3.1184804690       -1.3186571388
 C         -4.1313043589        2.0698413636       -2.2053400437
 C         -4.2123793804        0.7608298038       -1.7579616304
 H         -4.0615458917       -0.0751441398       -2.4202865699
 H         -3.9147465968        2.2676429808       -3.2428422424
 H         -4.2573847489        4.1360731244       -1.6704618546
 H         -4.7438230315        3.6859779486        0.7055020468
 H         -4.8735602910        1.3213561326        1.5044108453
 H         -3.9011882998       -2.8848881033       -1.0782842100
 H         -1.8881613808       -4.1115506991       -0.9412541390
 H          0.4863965012       -4.1462968143       -0.2702540536
 H          1.5280304422       -2.1359033158        0.7043598514
 H          0.6895871638        0.0331711165        2.2159462087
 C         -0.4068760902        1.5148446705        1.1311942318
 C         -1.4138666711        1.7820110083        2.2083455394
 C         -0.1528151061        2.5886858322        2.1446442960
 H         -0.2150059606        3.6194595013        1.8302610881
 H          0.6141781246        2.4021778825        2.8821466378
 H         -2.3420768034        2.2599407555        1.9343135046
 H         -1.5140294552        1.0479227931        2.9938231386
 H         -0.6447877524        1.8260710963        0.1198699853
