  62
        -98.93916011
 C         -2.3482043656       -1.2701672118       -0.0168344012
 C         -3.1318925949       -0.5360512514        0.9001747224
 C         -3.8602548720        0.6341898218        0.3722471803
 C         -3.7241086080        0.9450039950       -0.9305457130
 C         -4.3210661848        2.1097073003       -1.6745632594
 C         -3.5931443107        3.4319504290       -1.3810658508
 C         -3.2558690142        3.6686713556        0.0890242347
 H         -2.6400060586        2.8429864861        0.4518559045
 H         -2.6447137802        4.5735309439        0.1475756567
 C         -4.4580080316        3.8538177095        1.0123732382
 H         -5.0410236568        4.7116833594        0.6702761202
 H         -4.0693500650        4.0915743867        2.0059534878
 C         -5.3947612819        2.6511133580        1.1426145113
 H         -6.0380378140        2.5605768117        0.2716939603
 H         -6.0519195728        2.8427595883        1.9958184175
 C         -4.6965323898        1.3241215494        1.4234103134
 H         -4.0446711230        1.4405884788        2.2968661402
 H         -5.4535843561        0.5903462471        1.7257074531
 H         -2.6534006194        3.4311949018       -1.9396267450
 H         -4.2061708460        4.2544500065       -1.7532388621
 H         -4.2192859198        1.8871994708       -2.7389437124
 H         -5.3807485695        2.1917393067       -1.4522260218
 O         -2.9389677061        0.2174479790       -1.7762870206
 C         -2.2329102314       -0.8942698756       -1.3547153923
 O         -1.5608848966       -1.4486647220       -2.2445719322
 O         -3.2148379745       -0.8338753304        2.1237907167
 C         -1.5658989361       -2.4743841865        0.4758899393
 C         -0.0901394245       -2.2297997714        0.2766273993
 C          0.7638131427       -3.1269783980       -0.3497171759
 C          2.1015258683       -2.8148130089       -0.5241165302
 C          2.6169881609       -1.6133306722       -0.0748237659
 C          1.7729828590       -0.7113010466        0.5602193707
 C          0.4360028992       -1.0280821593        0.7361527556
 H         -0.2218219567       -0.3208355008        1.2277566521
 N          2.2887562371        0.5123312917        1.0300656745
 S          3.0736854311        1.4941202135       -0.0884203992
 O          2.9377188738        2.8381388106        0.4309546608
 O          2.5851065472        1.2692816845       -1.4293366032
 C          4.7775684066        0.9938594441        0.0380902350
 C          5.3992220504        1.1052468705        1.2665016904
 C          6.7247739387        0.7187066739        1.3825760508
 C          7.4028627204        0.2328020281        0.2743858999
 C          6.7658407899        0.1317060426       -0.9529586352
 C          5.4392944756        0.5155625624       -1.0757103970
 H          4.9001639905        0.4497588941       -2.0074689178
 H          7.2945048623       -0.2452348206       -1.8136559756
 H          8.4343343986       -0.0682265469        0.3674312280
 H          7.2239485954        0.7970300925        2.3348560409
 H          4.8371112116        1.4923522730        2.0997934582
 H          1.6106405366        1.0567027158        1.5445776684
 H          3.6562153717       -1.3649770307       -0.2155694207
 H          2.7518412928       -3.5183738706       -1.0210166204
 H          0.3802733954       -4.0655190667       -0.7141799882
 H         -1.7619355672       -2.5277868769        1.5572622052
 C         -2.0706348076       -3.7440057827       -0.1750697689
 C         -1.9313232525       -5.0586520949        0.5309876935
 C         -3.2795994755       -4.4188429791        0.3979465606
 H         -3.9960737079       -4.8557435463       -0.2813089601
 H         -3.7260586055       -3.9739965540        1.2753733542
 H         -1.7239479195       -5.9400699429       -0.0566156561
 H         -1.4633323346       -5.0555769179        1.5036447928
 H         -1.9726075935       -3.7255150789       -1.2546605927
