  62
        -98.94286081
 C         -1.3838147198       -0.6747144504        0.4402972305
 C         -2.0704852399       -0.5062577905       -0.7862757694
 C         -3.0107333802        0.6215868893       -0.8364309993
 C         -3.1364681502        1.4382737593        0.2253928407
 C         -4.0299854404        2.6457634791        0.3141366708
 C         -5.4790116603        2.3221276189        0.7026009409
 C         -6.3100764403        1.6487839687       -0.3902034090
 H         -7.3516947203        1.6786136685       -0.0642947289
 H         -6.2404372705        2.2317353287       -1.3092235590
 C         -5.9230452401        0.1902988488       -0.6725083990
 H         -5.3291198299       -0.1966600211        0.1586419309
 H         -6.8264067000       -0.4208285214       -0.7318185790
 C         -5.1482700202       -0.0200717310       -1.9735409991
 H         -5.7819451303        0.2408380688       -2.8241320791
 H         -4.8959764700       -1.0804044510       -2.0547002692
 C         -3.8456838503        0.7849777792       -2.0702637392
 H         -3.2670496103        0.4026757293       -2.9150849293
 H         -4.0664452705        1.8378190392       -2.2462147192
 H         -5.4692039601        1.6908318688        1.5940798709
 H         -5.9631496404        3.2647200488        0.9682831110
 H         -3.6036186004        3.2921000592        1.0845115108
 H         -4.0178341506        3.1825588891       -0.6350099492
 O         -2.4224171500        1.2677548994        1.3700863706
 C         -1.5447623498        0.2028392096        1.5124273905
 O         -0.9670207797        0.1558628496        2.6160324405
 H          0.7364674799        0.4300549600       -0.2973855097
 C          1.2129094800       -0.4475442899       -0.7183061298
 C          0.7335349703       -1.7061950200       -0.3805494697
 C          1.3700474005       -2.8168576499       -0.9217252298
 C          2.4483982703       -2.6667651297       -1.7773041399
 C          2.9193515901       -1.4096632896       -2.1118473900
 C          2.2873396599       -0.2953396597       -1.5802687799
 N          2.7944950497        0.9956567904       -1.8801437699
 S          4.1474016697        1.3847062806       -0.9652616700
 O          4.3786183394        2.7964158507       -1.1702291100
 O          5.2185341598        0.4972338008       -1.3367777802
 C          3.6347562599        1.0703529705        0.7134350400
 C          3.7556893902       -0.2073976195        1.2216828100
 C          3.2308060504       -0.4801191696        2.4746774400
 C          2.5928908103        0.5204362603        3.1911219901
 C          2.4851931300        1.8000015803        2.6690018001
 C          3.0031026798        2.0781189804        1.4146491601
 H          2.9344418596        3.0588317104        0.9703513601
 H          1.9839219699        2.5730094702        3.2292291402
 H          2.1658269804        0.3025925102        4.1570207201
 H          3.3104742506       -1.4746067696        2.8833344500
 H          4.2536838303       -0.9598629894        0.6319651299
 H          2.1043059296        1.7230101703       -1.7499774498
 H          3.7692253200       -1.2723792294       -2.7600504500
 H          2.9299952305       -3.5411153396       -2.1876450300
 H          1.0214878907       -3.8051760300       -0.6699225998
 C         -0.4014092896       -1.8167112102        0.6093132104
 H          0.0273328905       -1.6997261402        1.6163073303
 C         -1.1249192393       -3.1468596304        0.5376661304
 C         -0.6651654390       -4.3098821703        1.3631427904
 C         -1.9316441591       -3.5928831005        1.7189783405
 H         -2.8752585091       -4.0873516807        1.5433521606
 H         -1.9306828292       -2.9517339605        2.5887775405
 H          0.1923248910       -4.1641949301        2.0023894003
 H         -0.7416730889       -5.3019304103        0.9438947004
 H         -1.5298328594       -3.3452038304       -0.4480160395
 O         -1.9036885099       -1.2484219405       -1.7885372295
