  62
        -98.94302111
 C         -1.1306743506       -1.7539243000        0.1874592594
 C         -1.6586155502       -0.9084277701        1.1951292896
 C         -2.8865944199       -0.1791467394        0.8516788498
 C         -3.4262565399       -0.3399650989       -0.3704506302
 C         -4.6762289696        0.3366796918       -0.8535459800
 C         -4.3677083691        1.6668486519       -1.5528496497
 C         -3.4278836986        2.5740262612       -0.7599641094
 H         -2.4465907089        2.0990402808       -0.6973008196
 H         -3.3088159082        3.4952474413       -1.3332480492
 C         -3.9143334785        2.9166845911        0.6548783507
 H         -4.9837188686        2.7196668915        0.7386904806
 H         -3.7700489280        3.9854128310        0.8269295609
 C         -3.1774871488        2.1808217005        1.7759709505
 H         -2.0978100288        2.2829751700        1.6404777005
 H         -3.4360295986        2.6591130903        2.7247106706
 C         -3.4991907995        0.6878613506        1.9154937401
 H         -3.0750808096        0.3428778301        2.8632103600
 H         -4.5814264095        0.5452267710        1.9535981800
 H         -5.3103400588        2.1849334123       -1.7384217695
 H         -3.9015948592        1.4510741619       -2.5166428697
 H         -5.1721908599       -0.3299151778       -1.5611736702
 H         -5.3378188896        0.5052462819       -0.0057845600
 O         -2.8710237303       -1.1285855888       -1.3236912804
 C         -1.7180734706       -1.8605970294       -1.0736599006
 O         -1.3416523709       -2.5528354993       -2.0367945408
 H          1.7406546200       -0.5728497615        1.0875024297
 C          2.0390050097       -1.0883076614        0.1858103595
 C          1.2920596893       -2.1694258510       -0.2691913107
 C          1.6942180590       -2.8191995008       -1.4300544009
 C          2.8219782591       -2.3983351012       -2.1116147208
 C          3.5744025896       -1.3354853716       -1.6468424205
 C          3.1810186399       -0.6776874217       -0.4858662804
 N          3.9572162004        0.3740531078        0.0210972299
 S          3.3218473210        1.6461150978        0.8781182403
 O          4.3871654714        2.6273609974        0.8884062705
 O          2.8602212508        1.2132416677        2.1724355902
 C          1.9660860112        2.3069058987       -0.0766095596
 C          1.9940774012        2.2438613490       -1.4553780896
 C          0.9833148215        2.8603271197       -2.1761413494
 C         -0.0231496582        3.5422959799       -1.5119183592
 C         -0.0377771582        3.5986255296       -0.1267725292
 C          0.9623366515        2.9716651689        0.5988593506
 H          0.9828958915        2.9815027687        1.6773576106
 H         -0.8220804380        4.1297235998        0.3885551610
 H         -0.8008657880        4.0323731104       -2.0756850091
 H          0.9891024714        2.8112251500       -3.2532242694
 H          2.7898591610        1.7187264388       -1.9573262897
 H          4.7442925005        0.6500477076       -0.5464283600
 H          4.4651472898       -1.0209371419       -2.1691702805
 H          3.1220701989       -2.9090032811       -3.0138671509
 H          1.1135884086       -3.6440679305       -1.8068044711
 C          0.0859228091       -2.5975558206        0.5298631492
 H          0.2957501692       -2.3754431710        1.5857748992
 C         -0.2179897716       -4.0772388205        0.3997796888
 C          0.6938206680       -5.0728475911        1.0496745885
 C         -0.6779881819       -4.8380012406        1.6051962686
 H         -1.4265579323       -5.6053005002        1.4753817784
 H         -0.7681519517       -4.2943280208        2.5344847987
 H          0.8896820376       -6.0038650010        0.5403733983
 H          1.5373030882       -4.6869086116        1.6022785686
 H         -0.6655924817       -4.3426499400       -0.5501158613
 O         -1.1403298801       -0.7869555606        2.3383247796
