  62
        -98.93341320
 C          1.6216642893        0.2872713502        0.0453131706
 C          2.7421114392        1.0493758303        0.4583315709
 C          4.0762083993        0.4704588104        0.2155105009
 C          4.1621778894       -0.7582456595       -0.3239225094
 C          5.3942158095       -1.5558777893       -0.6698250194
 C          6.5277199594       -1.5598585594        0.3675486006
 C          7.7602966194       -0.7686267192       -0.0739321291
 H          8.6317140094       -1.1528632592        0.4609896409
 H          7.9262084395       -0.9493988789       -1.1380745191
 C          7.6912099592        0.7366528808        0.1777949812
 H          7.7781615291        0.9280706506        1.2495293513
 H          8.5590015292        1.1923670209       -0.3048363886
 C          6.4260562792        1.4279148408       -0.3344336688
 H          6.1448730893        1.0343890409       -1.3107415089
 H          6.6567569491        2.4864313008       -0.4723751285
 C          5.2374465191        1.3307749104        0.6336143511
 H          5.5838225291        1.0016682903        1.6175406411
 H          4.8045013090        2.3243539904        0.7857530713
 H          6.8316916095       -2.5963447894        0.5229237705
 H          6.1586534193       -1.1863158296        1.3214491907
 H          5.7741871296       -1.2055521990       -1.6329442093
 H          5.0344113196       -2.5748396793       -0.8304498997
 O          3.0554518995       -1.4766960695       -0.6661555696
 C          1.7669575194       -0.9890527396       -0.4982361796
 O          0.8801161295       -1.7839858396       -0.8594509199
 O          2.6342666990        2.1762902701        1.0120531711
 C          0.2456591792        0.8864216701        0.2743655606
 C         -0.6764696208       -0.1264020101        0.9021162403
 C         -0.4148595408       -0.5588848904        2.2000798803
 C         -1.2272803208       -1.4938240206        2.8105377900
 C         -2.3320293507       -2.0014517205        2.1486824798
 C         -2.6001915406       -1.5782480503        0.8531060399
 C         -1.7745898407       -0.6468260401        0.2372980001
 H         -1.9771426006       -0.3730157399       -0.7837100298
 N         -3.7103867005       -2.0716883003        0.1559229597
 S         -4.5364136505       -1.0969717901       -0.9141601702
 O         -5.8684966505       -1.6634398402       -0.9585983704
 O         -3.8505420004       -1.0185289698       -2.1789768201
 C         -4.5897052407        0.5149275397       -0.1479931399
 C         -5.0913177808        0.6207597794        1.1342973301
 C         -5.1306574610        1.8667407493        1.7384013804
 C         -4.6732801910        2.9818865095        1.0530573206
 C         -4.1811151909        2.8612794698       -0.2370056593
 C         -4.1371183708        1.6163941199       -0.8446959196
 H         -3.7565335507        1.4762583001       -1.8440407096
 H         -3.8282875410        3.7299888799       -0.7701567291
 H         -4.7012750012        3.9509660594        1.5256634608
 H         -5.5153628011        1.9645925690        2.7407026204
 H         -5.4471092008       -0.2625583207        1.6387825199
 H         -4.3214264005       -2.6778490904        0.6816908995
 H         -2.9706681307       -2.7305881907        2.6235497096
 H         -1.0060126608       -1.8262672708        3.8135450700
 H          0.4460590191       -0.1595063304        2.7187446404
 H          0.4197343691        1.6877328199        1.0117500708
 C         -0.3593661308        1.5528010003       -0.9516830093
 C          0.5040582493        2.1957076506       -1.9940253691
 C         -0.2678504906        0.9543615606       -2.3220015994
 H         -1.1253744905        1.0310865006       -2.9754928195
 H          0.2676842495        0.0237161806       -2.4284207996
 H          0.1818740692        3.1325584106       -2.4228232289
 H          1.5749025893        2.1126652506       -1.8779401590
 H         -1.2851238208        2.0662085401       -0.7090923493
