  62
        -98.94489687
 C         -1.8990982385       -1.0878885902       -0.2250918758
 C         -3.0360454377       -1.1751617252        0.6231739041
 C         -4.2660310864       -0.5451645839        0.1347160748
 C         -4.2735167789        0.0520393983       -1.0703934881
 C         -5.4526574199        0.7211860754       -1.7224266790
 C         -5.6744650744        2.1716574612       -1.2720138398
 C         -6.2216552092        2.3360977123        0.1465201948
 H         -6.5355647463        3.3767336031        0.2498174223
 H         -7.1099958826        1.7151400980        0.2662896208
 C         -5.2115462823        2.0134820409        1.2566959509
 H         -4.2005444393        2.0145039572        0.8420876853
 H         -5.2439429269        2.7968295650        2.0173714785
 C         -5.4536215162        0.6817598394        1.9674386856
 H         -6.4059259549        0.7191518314        2.5010137323
 H         -4.6593947272        0.5386294101        2.7045306112
 C         -5.4626439647       -0.5381092438        1.0370424146
 H         -6.3811620128       -0.5574097149        0.4508284764
 H         -5.4202111092       -1.4396087215        1.6530845917
 H         -6.3857813417        2.6233728838       -1.9673699647
 H         -4.7307578897        2.7146722603       -1.3634030406
 H         -5.2560735869        0.7207173672       -2.7967664539
 H         -6.3549716240        0.1386969251       -1.5340985513
 O         -3.1734889260        0.0964097479       -1.8644556502
 C         -1.9606470580       -0.4455919437       -1.4615600274
 O         -1.0505192752       -0.2849205839       -2.3010725625
 O         -3.0222065179       -1.7636359142        1.7364449433
 C         -0.6204852395       -1.7266194168        0.2913197852
 C          0.3234502349       -0.6939142441        0.8594867499
 C          0.6498416908       -0.6905969103        2.2103652091
 C          1.5372070985        0.2416595922        2.7205918084
 C          2.1172440092        1.1870458590        1.8943607888
 C          1.7917204140        1.1946235935        0.5440460733
 C          0.9079366848        0.2560371600        0.0335211420
 H          0.6539025943        0.2728278148       -1.0158537445
 N          2.3904920330        2.1448856457       -0.3093155026
 S          4.0669460997        2.1149167262       -0.3431829447
 O          4.5769976022        2.8022799437        0.8168049950
 O          4.4441790166        2.6685577859       -1.6242207146
 C          4.4765541660        0.3812846560       -0.2530339732
 C          4.1991438300       -0.4077588358       -1.3516119671
 C          4.4369636944       -1.7700094717       -1.2751550375
 C          4.9366916129       -2.3185300264       -0.1039507889
 C          5.2109446177       -1.5124802055        0.9896710383
 C          4.9775781623       -0.1484623985        0.9184242926
 H          5.1767871370        0.5140976701        1.7444521381
 H          5.6007442869       -1.9421158918        1.8982264305
 H          5.1136766102       -3.3808863588       -0.0446081073
 H          4.2272074887       -2.3969786474       -2.1271073886
 H          3.8121933516        0.0523032832       -2.2471085877
 H          2.0232415524        2.1088087915       -1.2499701776
 H          2.8146744931        1.9185370916        2.2696051602
 H          1.7801805314        0.2318057402        3.7720545509
 H          0.1935060836       -1.4196185404        2.8639123127
 H         -0.9424203933       -2.3737953385        1.1179878481
 C          0.0902138049       -2.5821537120       -0.7402919807
 C          1.0991026073       -3.5867687846       -0.2738203746
 C         -0.2184260586       -4.0455991897       -0.8212752466
 H         -0.2418382208       -4.5130658808       -1.7942562085
 H         -0.9491395766       -4.4414729068       -0.1310994089
 H          1.9856242158       -3.7386141923       -0.8691486439
 H          1.2637118938       -3.6708876438        0.7894208695
 H          0.2861718253       -2.0637678977       -1.6695361285
