  62
        -98.93260499
 C         -2.5636299910       -1.4169823049       -0.0330739660
 C         -2.5033094618       -0.1851613198       -0.7263734895
 C         -3.7713573032        0.5512337789       -0.8336156510
 C         -4.8939794494        0.0280668555       -0.3084134005
 C         -6.2791124864        0.6151715001       -0.3768436172
 C         -6.4942950662        1.9432533172        0.3743929001
 C         -6.3228928849        3.1956472830       -0.4939845369
 H         -6.5054252274        2.9285305667       -1.5355379260
 H         -7.0898307840        3.9219491383       -0.2174055311
 C         -4.9718739308        3.9082597178       -0.3785233489
 H         -4.8913510671        4.6103365163       -1.2112135986
 H         -4.9533595009        4.4912468170        0.5451695168
 C         -3.7380688585        3.0051395824       -0.3726160920
 H         -2.8524376873        3.6342640879       -0.4848059317
 H         -3.6435574933        2.5168482933        0.6006164570
 C         -3.7330184830        1.9140996232       -1.4611263778
 H         -4.5703705742        2.0479069152       -2.1444542364
 H         -2.8057359316        1.9670870097       -2.0352456301
 H         -7.5175035694        1.9295753033        0.7531366141
 H         -5.8311271861        1.9846104822        1.2381440403
 H         -6.5530593171        0.7447618989       -1.4262261276
 H         -6.9373186614       -0.1449866353        0.0487374938
 O         -4.9087440292       -1.1692254884        0.3396781121
 C         -3.7501553596       -1.9073603808        0.5114432587
 O         -3.9034672781       -2.9662567963        1.1533998987
 O         -1.4493281603        0.2744274331       -1.2399432473
 C         -1.3049781077       -2.2454767401        0.1517136747
 C         -0.2588831588       -1.4264157260        0.8689288220
 C         -0.6040040687       -0.8075212812        2.0679449137
 C          0.3136523780       -0.0373107057        2.7545406348
 C          1.5992571633        0.1286480363        2.2681368204
 C          1.9557641641       -0.4861420013        1.0767363414
 C          1.0286777984       -1.2611555021        0.3871755428
 H          1.3191656242       -1.7284798556       -0.5407617707
 N          3.2679820844       -0.3657772659        0.5805966741
 S          4.0519048196        1.1268450090        0.6566016866
 O          4.3994949612        1.3952568545        2.0296077921
 O          3.2745213221        2.1478110893       -0.0106227967
 C          5.5255694688        0.7527985864       -0.2727131235
 C          6.5357867980        0.0474630645        0.3534832334
 C          7.6754276100       -0.2716460435       -0.3670750601
 C          7.7853408910        0.1173129768       -1.6940310536
 C          6.7635713810        0.8254897203       -2.3083439843
 C          5.6199490448        1.1466355670       -1.5936668019
 H          4.8036185617        1.7013794345       -2.0283232474
 H          6.8527583616        1.1283583113       -3.3392492950
 H          8.6739024339       -0.1309921320       -2.2527194137
 H          8.4729793405       -0.8206158698        0.1069745160
 H          6.4094634340       -0.2259424749        1.3878528703
 H          3.3470935715       -0.7456855902       -0.3536009429
 H          2.3195936253        0.7353601509        2.7917413073
 H          0.0284830859        0.4422790991        3.6793668255
 H         -1.6090085741       -0.9330719468        2.4491323006
 H         -1.5860725067       -3.0836658203        0.8057299850
 C         -0.8474459821       -2.8000304905       -1.1810769009
 C         -0.0526141354       -4.0692213421       -1.2372844213
 C         -1.4795944135       -4.0574316180       -1.6944944652
 H         -1.6852454238       -4.1363848601       -2.7514580221
 H         -2.2247457570       -4.5273711149       -1.0691550399
 H          0.7214109420       -4.1619360238       -1.9842327570
 H          0.1750989482       -4.5571905218       -0.3017554680
 H         -0.6280784914       -2.0213189837       -1.9028136032
