  62
        -98.94943120
 C          1.0079020904        1.7352621099        0.0985028589
 C          1.6603132607        0.9855249299        1.1054910188
 C          2.8503439102        0.2396980694        0.6816847283
 C          3.2445605696        0.2892012990       -0.6037327619
 C          4.4384029490       -0.4139185815       -1.1901953924
 C          4.1738310884       -1.8807970415       -1.5567374920
 C          4.0952794987       -2.8443372012       -0.3717940418
 H          4.1516047481       -3.8556308113       -0.7796740716
 H          4.9646757090       -2.7020286514        0.2716791478
 C          2.8097815591       -2.7240535906        0.4583867089
 H          2.0428087490       -2.2156329005       -0.1322586708
 H          2.4218813589       -3.7237872005        0.6712793693
 C          2.9857492401       -2.0133150604        1.8007466887
 H          2.0087643703       -1.9530376600        2.2866259392
 H          3.6408912602       -2.6081874005        2.4417408584
 C          3.5623063605       -0.5949737506        1.7042542681
 H          4.6272224903       -0.6400788110        1.4762917175
 H          3.4325309611       -0.1082780304        2.6744217981
 H          3.2437463381       -1.9375524513       -2.1284306415
 H          4.9874841879       -2.2061621819       -2.2095716823
 H          5.2789253094       -0.3557798416       -0.4975090229
 H          4.7001782287        0.1276694082       -2.1018349027
 O          2.5946594793        1.0267338890       -1.5424418617
 C          1.4568203597        1.7545570095       -1.2225459113
 O          0.9552857995        2.3701489295       -2.1828361012
 O          1.2683570013        0.9428788002        2.3031604590
 C         -0.2474948091        2.5045119004        0.4558428194
 C         -1.4485074597        2.0109228606       -0.3168588498
 C         -2.5672216196        2.8072713210       -0.5387752394
 C         -3.6617563501        2.3036729312       -1.2193102987
 C         -3.6782334007        0.9981380411       -1.6774014885
 C         -2.5659272909        0.1937901108       -1.4602666689
 C         -1.4694509904        0.7063146205       -0.7853843096
 H         -0.6015676905        0.0806683703       -0.6567527299
 N         -2.5258202816       -1.1317702093       -1.9122026087
 S         -1.6289747515       -2.2801374895       -1.0981862189
 O         -0.2203214416       -2.0885402500       -1.3369404097
 O         -2.1785576422       -3.5404536394       -1.5513892284
 C         -2.0244068706       -2.0330451790        0.6231068813
 C         -1.0721796599       -1.5509752191        1.4958214807
 C         -1.4268201492       -1.3020993088        2.8118581908
 C         -2.7239469090       -1.5474764382        3.2333194215
 C         -3.6680682497       -2.0485792881        2.3490200021
 C         -3.3196226404       -2.2893052685        1.0303789020
 H         -4.0247741509       -2.6821458984        0.3160985724
 H         -4.6744044896       -2.2445411977        2.6823806127
 H         -2.9985937584       -1.3476665880        4.2570301316
 H         -0.6854195587       -0.8986288889        3.4837488003
 H         -0.0708056201       -1.3639893695        1.1418068601
 H         -3.3916537419       -1.4972914791       -2.2779946781
 H         -4.5331508011        0.6080398213       -2.2076389580
 H         -4.5194955500        2.9357737914       -1.3916146684
 H         -2.5765676590        3.8252135210       -0.1844869796
 H         -0.4252025387        2.2914261007        1.5218450196
 C         -0.0248215687        3.9961353003        0.2923333490
 C         -0.6342033179        4.9711844507        1.2539338792
 C          0.8404467120        4.7095038302        1.2867389084
 H          1.5136421421        5.4745598699        0.9302267979
 H          1.2387002823        4.1243667002        2.1029143884
 H         -0.9751712578        5.9229389507        0.8750141191
 H         -1.2316195676        4.5743763810        2.0608711195
 H          0.0648338808        4.2884445600       -0.7479147211
