  62
        -98.94080470
 C          1.1154793740        1.2633624588       -0.2160779171
 C          2.0541480203        1.0344050107        0.8213067362
 C          2.9475082179       -0.1312962895        0.6869435454
 C          2.8187365845       -0.9172249866       -0.3977673320
 C          3.6553418633       -2.1047547176       -0.7947955295
 C          5.0293170147       -1.6968408093       -1.3507826396
 C          5.7528479445       -0.6177081604       -0.5497083910
 H          6.6612751652       -0.3518263716       -1.0968218845
 H          5.1288529564        0.2767774990       -0.5065673840
 C          6.1617578575       -1.0202732065        0.8654092647
 H          6.8101738030       -1.8979213059        0.8155187612
 H          6.7507812517       -0.1971208601        1.2781116959
 C          5.0158602309       -1.3155748615        1.8361246263
 H          4.6002831705       -2.3049172888        1.6647616714
 H          5.4400746809       -1.3294798903        2.8444071691
 C          3.9046337921       -0.2705429967        1.8459545589
 H          3.2763621633       -0.4386368305        2.7291284502
 H          4.3466680406        0.7211245970        1.9950603024
 H          4.8848322280       -1.3169949298       -2.3651388535
 H          5.6551252750       -2.5889035354       -1.4111353927
 H          3.7705270659       -2.7848332346        0.0440753667
 H          3.1070905139       -2.6275403213       -1.5814154186
 O          1.8768838805       -0.6817613967       -1.3523337225
 C          1.0037309719        0.3859560596       -1.2942172022
 O          0.2048522373        0.4258296584       -2.2523170125
 H         -1.6824045790        1.0658955074       -1.3361605473
 C         -1.9957050665        1.3852364551       -0.3534278901
 C         -1.1284252633        2.1366610560        0.4273066038
 C         -1.5371294650        2.5077487300        1.7029523768
 C         -2.7828466356        2.1391502580        2.1823925696
 C         -3.6423142632        1.3846679315        1.4032486899
 C         -3.2356591638        1.0008234660        0.1323535258
 N         -4.0813827853        0.1744817450       -0.6472788559
 S         -4.1764374151       -1.4056799431       -0.0983922401
 O         -4.8787760746       -2.1423147744       -1.1238310329
 O         -4.7812466336       -1.3978362222        1.2093048838
 C         -2.4901557018       -1.9790599494        0.0196916581
 C         -1.7274646290       -1.6029653142        1.1077148020
 C         -0.4089173769       -2.0221859331        1.1763527915
 C          0.1176155569       -2.8149969578        0.1689411410
 C         -0.6579884510       -3.1761312153       -0.9210582567
 C         -1.9724021837       -2.7473920766       -1.0030044846
 H         -2.6100932428       -3.0055871389       -1.8333781604
 H         -0.2404080775       -3.7831789522       -1.7081904892
 H          1.1406059292       -3.1494270693        0.2343062590
 H          0.2050672681       -1.7237319670        2.0118533230
 H         -2.1712591253       -1.0003988657        1.8835804237
 H         -3.8074743328        0.1563282432       -1.6209237296
 H         -4.6039689996        1.0627847505        1.7681170522
 H         -3.0856710886        2.4370573840        3.1747520545
 H         -0.8623038156        3.0752071407        2.3271922221
 C          0.2425400357        2.5012884775       -0.0859222805
 H          0.7327343233        3.1171941444        0.6797741945
 C          0.1579251719        3.3058666072       -1.3681372405
 C         -0.2491079752        4.7459239735       -1.2960993431
 C          1.1668912238        4.3825329608       -1.6263543422
 H          1.5169832300        4.5282062792       -2.6372753303
 H          1.9246919906        4.5491324375       -0.8746639011
 H         -0.8747605051        5.1441412001       -2.0800420796
 H         -0.4512075581        5.1598861566       -0.3198516112
 H         -0.1782715297        2.7296192121       -2.2201317713
 O          2.1601680953        1.7905240196        1.8241554894
