  62
        -98.94486154
 C         -1.8725920776       -0.3897627636        0.0519805120
 C         -2.9441476145       -0.4880263334        0.9798497331
 C         -4.1115770817        0.3647621820        0.7273494690
 C         -4.0988059013        1.1953001764       -0.3307266311
 C         -5.2355586577        2.0859949069       -0.7381381508
 C         -6.1689489719        1.3771356559       -1.7295717008
 C         -6.5957890181       -0.0215362764       -1.2840080276
 H         -7.2765470378       -0.4110856103       -2.0440301221
 H         -5.7200574637       -0.6743733797       -1.2719501797
 C         -7.2809327661       -0.0690561322        0.0888667235
 H         -7.6265586082        0.9276958630        0.3654778364
 H         -8.1627485488       -0.7093342000        0.0180848837
 C         -6.4100927368       -0.6334362217        1.2129703142
 H         -7.0523901615       -0.8246487054        2.0767294225
 H         -5.9866208137       -1.5917087020        0.9019433458
 C         -5.2639359253        0.2690463896        1.6872293058
 H         -4.8551096276       -0.1665143421        2.6036065360
 H         -5.6513899457        1.2623737152        1.9231796057
 H         -7.0530253500        2.0001824433       -1.8766743018
 H         -5.6525291928        1.2884502790       -2.6882053278
 H         -4.8216931667        2.9763552587       -1.2147470031
 H         -5.7904434380        2.3860593228        0.1487387675
 O         -3.0499868237        1.2805179474       -1.1848252264
 C         -1.9174679916        0.4943191695       -1.0258485824
 O         -1.0556384805        0.6911460365       -1.9067573225
 O         -2.9238491964       -1.2623128954        1.9731718048
 C         -0.6693874587       -1.2831587263        0.3071445639
 C          0.4578028795       -0.5055152166        0.9431355046
 C          0.8199810580       -0.7302028872        2.2660637087
 C          1.8660538119       -0.0293897457        2.8414076025
 C          2.5724837192        0.9076718664        2.1091720542
 C          2.2123411486        1.1435170477        0.7887400669
 C          1.1685315266        0.4360242016        0.2119164811
 H          0.8855945139        0.6365733971       -0.8105034071
 N          2.9352185774        2.0884706638        0.0288972463
 S          4.5680867244        1.7520450608       -0.1528532602
 O          5.2560540174        2.0811423866        1.0701642433
 O          4.9898747606        2.4716126880       -1.3333969789
 C          4.6247080204       -0.0084765011       -0.4312020973
 C          4.9391216846       -0.8575058533        0.6103057850
 C          4.8936326382       -2.2254953158        0.3946889113
 C          4.5339379787       -2.7173960718       -0.8501972228
 C          4.2238923959       -1.8507962235       -1.8871365619
 C          4.2629576900       -0.4823214692       -1.6764532552
 H          4.0309101773        0.2225891557       -2.4590776819
 H          3.9474814150       -2.2346627851       -2.8563372758
 H          4.4959762698       -3.7828675733       -1.0144387027
 H          5.1343217570       -2.9021642873        1.1985742602
 H          5.2168865246       -0.4340486946        1.5612818789
 H          2.5173479347        2.2574126632       -0.8757064134
 H          3.3953107388        1.4589190979        2.5351942495
 H          2.1343900554       -0.2146273634        3.8702544700
 H          0.2659355153       -1.4529840678        2.8470974018
 H         -1.0167593894       -2.0233826533        1.0400378307
 C         -0.1885688612       -2.0181196370       -0.9294438361
 C          0.7142883586       -3.2018941615       -0.7605510900
 C         -0.7009983697       -3.3967517434       -1.2131770559
 H         -0.8831779345       -3.6763017121       -2.2400711343
 H         -1.4069910715       -3.8219468693       -0.5147633391
 H          1.5090034201       -3.3465876911       -1.4752741330
 H          0.9698322436       -3.4935066877        0.2466251132
 H         -0.0158633504       -1.3697919228       -1.7781790007
