  62
        -98.94395683
 C         -1.3733810147       -1.6040548105       -0.6299575765
 C         -2.5978669855       -1.5580353713        0.0847026054
 C         -3.5669582548       -0.5388146183       -0.3334130239
 C         -3.2599633895        0.2725719149       -1.3614279439
 C         -4.1193142704        1.4008505065       -1.8520332534
 C         -3.7518779285        2.7154121860       -1.1499741180
 C         -3.6747991003        2.6031093396        0.3728664142
 H         -3.4477367826        3.5995655750        0.7590855596
 H         -2.8277453305        1.9647998653        0.6379702602
 C         -4.9519175171        2.0718752861        1.0393427012
 H         -5.7943817134        2.1701322818        0.3536146072
 H         -5.1708272895        2.6891454574        1.9132063219
 C         -4.8612382371        0.6247531614        1.5275644671
 H         -5.7214561906        0.4295555444        2.1735846721
 H         -3.9601725592        0.5004241672        2.1340978060
 C         -4.8561858984       -0.4497251419        0.4329697140
 H         -5.6981787499       -0.2906207184       -0.2437346466
 H         -4.9828059832       -1.4210809895        0.9200787489
 H         -4.4881829591        3.4731273514       -1.4254417458
 H         -2.7731042070        3.0412059687       -1.5110371930
 H         -5.1656248113        1.1602629899       -1.6733607429
 H         -3.9589187187        1.5158496667       -2.9254727116
 O         -2.0955789139        0.1804756037       -2.0467289398
 C         -1.1040601415       -0.7241746675       -1.6796417432
 O         -0.0773021880       -0.6387499918       -2.3773879716
 O         -2.8658080235       -2.3434076308        1.0348469611
 C         -0.3483473622       -2.6065675165       -0.1303417380
 C          0.4388410034       -2.0222750870        1.0182978064
 C          0.7957954867       -2.7979515370        2.1153677172
 C          1.5114056738       -2.2431330285        3.1619015051
 C          1.8729389170       -0.9084444678        3.1412434931
 C          1.5038535314       -0.1177974021        2.0567777758
 C          0.8063876537       -0.6849755446        1.0004915291
 H          0.5150503242       -0.0640403032        0.1698821297
 N          1.8001162245        1.2469120752        2.0434786289
 S          1.8383716507        2.2040420620        0.6794314371
 O          2.3149048663        3.4771420040        1.1787611352
 O          0.5509697107        2.2205161115        0.0333001002
 C          3.0993799022        1.4925762770       -0.3611244785
 C          2.7796374671        0.7805155172       -1.4980248843
 C          3.8103032475        0.2467762682       -2.2588405293
 C          5.1282961033        0.4251105264       -1.8721860518
 C          5.4321214081        1.1437765971       -0.7249780685
 C          4.4102974827        1.6834578452        0.0366923836
 H          4.6029695481        2.2671813328        0.9220678703
 H          6.4581656492        1.2852973618       -0.4260134093
 H          5.9218903577        0.0043244458       -2.4692027583
 H          3.5652729754       -0.3087125945       -3.1497904529
 H          1.7487087800        0.6366216164       -1.7833104164
 H          2.3996901550        1.5813454299        2.7811143813
 H          2.4167572125       -0.4723732933        3.9648684366
 H          1.7836942534       -2.8544939077        4.0087011074
 H          0.4890094100       -3.8325884700        2.1567394627
 H         -0.9405001089       -3.4429538618        0.2760200700
 C          0.5460980594       -3.1693230787       -1.2248260317
 C          1.9787020253       -2.7714805947       -1.3924246571
 C          1.6394297519       -4.1418333359       -0.8933329657
 H          1.7921833153       -4.9842925977       -1.5506230957
 H          1.8258231172       -4.3529758078        0.1480762863
 H          2.3506570587       -2.6583558797       -2.3984251657
 H          2.3912435000       -2.0575442775       -0.6959360191
 H         -0.0089767017       -3.3562909253       -2.1382010263
