  62
        -98.93407702
 C         -1.7384308603       -0.4577606971       -0.3695957714
 C         -2.9456145409       -0.5848979781       -1.1006794823
 C         -4.1962539526       -0.5596627033       -0.3243844245
 C         -4.1354988226       -0.4657346064        1.0146465095
 C         -5.2699411865       -0.4631450678        2.0086360270
 C         -6.5151996199        0.3634104576        1.6604538694
 C         -6.2404115835        1.6448323853        0.8598977371
 H         -5.1694714643        1.8542789123        0.8446566490
 H         -6.7292636265        2.4851261340        1.3563512983
 C         -6.7679601600        1.5769795078       -0.5753619878
 H         -6.8773750388        2.5946352019       -0.9579681123
 H         -7.7620915602        1.1248305888       -0.5618415357
 C         -5.8862598128        0.8147284901       -1.5639898569
 H         -4.9743353216        1.3843467828       -1.7634888771
 H         -6.4282125409        0.7400337669       -2.5098585656
 C         -5.4662639797       -0.5974341918       -1.1246942365
 H         -5.2373343696       -1.1747186433       -2.0247978381
 H         -6.2676701012       -1.0978785040       -0.5866698106
 H         -6.9965498552        0.6205785829        2.6055527806
 H         -7.2212069515       -0.2553137143        1.1083092308
 H         -4.8316551385       -0.0914377065        2.9379471959
 H         -5.5675048134       -1.5007160085        2.1866289819
 O         -2.9503881828       -0.3935483985        1.6825244237
 C         -1.7283911633       -0.3863443282        1.0233401715
 O         -0.7468647658       -0.3180350239        1.7851030425
 O         -2.9774717954       -0.7290931911       -2.3520122439
 C         -0.4375879481       -0.4757669726       -1.1506483782
 C          0.5469795007       -1.4246040592       -0.5156050058
 C          0.1665665900       -2.7503165570       -0.3179774174
 C          1.0298412133       -3.6544866654        0.2669926065
 C          2.3041537027       -3.2647559820        0.6427064410
 C          2.6978785066       -1.9494806906        0.4397328639
 C          1.8187561515       -1.0371744009       -0.1279057399
 H          2.1386409416       -0.0164109151       -0.2492768046
 N          3.9800469730       -1.5121437235        0.8071208648
 S          4.8319749220       -0.5339449221       -0.2501712284
 O          4.5068472692       -0.8315024369       -1.6260703988
 O          6.2194794830       -0.7083325218        0.1249599871
 C          4.3388405294        1.1286684724        0.1501678911
 C          4.2793056225        1.5041753893        1.4773897694
 C          3.9384459625        2.8108897125        1.7874551306
 C          3.6720997645        3.7168083854        0.7719231263
 C          3.7391737829        3.3246211341       -0.5563761066
 C          4.0764511272        2.0179720213       -0.8730056404
 H          4.1310077347        1.6674121765       -1.8915007635
 H          3.5290819664        4.0295500490       -1.3452319452
 H          3.4068377784        4.7333851018        1.0164338293
 H          3.8806268035        3.1190099610        2.8189500475
 H          4.4923655787        0.7740617362        2.2401213436
 H          4.5703026543       -2.2225332696        1.2150510417
 H          2.9842352145       -3.9717783301        1.0936276437
 H          0.7146801566       -4.6753306924        0.4239429823
 H         -0.8256553157       -3.0587754588       -0.6196034052
 H         -0.7165912132       -0.8943430135       -2.1331436579
 C          0.1463683003        0.9034671618       -1.4188508342
 C         -0.7308323490        2.1169397547       -1.4807708394
 C          0.2388115826        1.9510113102       -0.3512929479
 H          1.1150325198        2.5822228132       -0.3280866674
 H         -0.1428502561        1.6990562608        0.6253251491
 H         -0.5237755680        2.8605716273       -2.2354800548
 H         -1.7832532957        1.9841250651       -1.2757154363
 H          0.9621679498        0.8640736304       -2.1352237109
