  62
        -98.93922982
 C          1.7993730121       -0.7475697435       -0.5441961032
 C          3.1050844235       -0.7458580825       -1.0999162222
 C          3.9426850827        0.4191738706       -0.7873966342
 C          3.4226273759        1.4238396251       -0.0596322376
 C          4.1797332527        2.6395683372        0.3877530370
 C          4.8210899264        2.4150915668        1.7644543708
 C          5.6055131884        1.1075084446        1.8756852616
 H          6.0371801066        1.0717214442        2.8783447367
 H          4.9116027806        0.2671309355        1.7969144340
 C          6.7201810752        0.9444480266        0.8326864519
 H          7.6174341088        0.5763343616        1.3346264287
 H          6.9665396900        1.9145280794        0.3995867467
 C          6.4002282148       -0.0449035007       -0.2895934757
 H          6.0656361540       -0.9921220352        0.1416522106
 H          7.3235259032       -0.2454099980       -0.8394604379
 C          5.3519389777        0.4191557424       -1.3087666094
 H          5.6222287894        1.4053772403       -1.6910777993
 H          5.3628638335       -0.2887042900       -2.1427495030
 H          4.0296974271        2.4038349437        2.5177603163
 H          5.4819281335        3.2568400008        1.9791527819
 H          3.4816166377        3.4755384977        0.4543582955
 H          4.9463972836        2.8755779678       -0.3476387888
 O          2.1439126040        1.4218188236        0.3925766389
 C          1.3000863698        0.3385582129        0.1758409597
 O          0.1618945036        0.4875501751        0.6573998723
 O          3.5460268837       -1.6764430524       -1.8249232384
 C          0.9327045530       -1.9669439232       -0.8035442240
 C         -0.4691807155       -1.5478822756       -1.1633486414
 C         -0.6668880110       -0.7982742252       -2.3202221571
 C         -1.9255935277       -0.3531276651       -2.6743090243
 C         -3.0192494899       -0.6463977491       -1.8781928998
 C         -2.8341361293       -1.3967035791       -0.7260125650
 C         -1.5709269403       -1.8520486732       -0.3781913595
 H         -1.4504938582       -2.4067669025        0.5397597443
 N         -3.9658963704       -1.6606747626        0.0944944306
 S         -4.2277664825       -0.4723922338        1.2716018416
 O         -3.1781591206       -0.5036253967        2.2679090717
 O         -5.5576599276       -0.7261461323        1.7853663871
 C         -4.2040025044        1.0509906952        0.3592372134
 C         -2.9991429780        1.6912206987        0.1446944820
 C         -2.9971196740        2.8618514308       -0.5985170049
 C         -4.1842520000        3.3649114361       -1.1085806139
 C         -5.3842416212        2.7078924442       -0.8805510300
 C         -5.3966156568        1.5366172518       -0.1409068371
 H         -6.3019253467        0.9894627706        0.0655810794
 H         -6.3053965305        3.1025929228       -1.2780438847
 H         -4.1722433121        4.2752867964       -1.6871939174
 H         -2.0617416117        3.3680986453       -0.7775630140
 H         -2.0884139009        1.2719622709        0.5454387439
 H         -3.8768377626       -2.5390337109        0.5908313536
 H         -4.0075281562       -0.3031570557       -2.1373373083
 H         -2.0573790429        0.2298925843       -3.5727402743
 H          0.1907866931       -0.5569411082       -2.9335570002
 H          1.3862152128       -2.4435070425       -1.6887954710
 C          0.9807233224       -2.9972514335        0.3158252185
 C          2.1956298676       -3.1461900934        1.1803139416
 C          0.9252371712       -2.6058618216        1.7614025726
 H          0.3652530545       -3.2290917295        2.4441729904
 H          0.8655941580       -1.5534335887        1.9941682814
 H          2.5077490418       -4.1412168179        1.4595763296
 H          3.0151473949       -2.4618640759        1.0168764220
 H          0.4735238336       -3.9178023654        0.0416431343
