  62
        -98.94108484
 C         -1.8630807805       -0.6446330458        0.3423714480
 C         -2.7627280655        0.0318944257        1.2046455206
 C         -4.1907877876       -0.1368003705        0.9166191908
 C         -4.5749594409       -0.9274080700       -0.1017102232
 C         -5.9930272069       -1.2260111016       -0.5066917162
 C         -6.6183535324       -0.1634767307       -1.4207675126
 C         -6.9731239693        1.1565726079       -0.7351486818
 H         -7.5962728203        1.7217163312       -1.4311793701
 H         -7.5760384763        0.9544461186        0.1507211208
 C         -5.7606221213        2.0156963089       -0.3498388802
 H         -5.9387074799        3.0515344870       -0.6473910358
 H         -4.8807112129        1.6726944295       -0.8990149566
 C         -5.4371034094        2.0243300145        1.1443061460
 H         -6.2575597608        2.4904855111        1.6945473063
 H         -4.5411511100        2.6316786117        1.2973112761
 C         -5.1749647867        0.6356802834        1.7418680549
 H         -4.7434677818        0.7668249970        2.7373423831
 H         -6.1100504721        0.0836366719        1.8358954377
 H         -7.5343369566       -0.5895748255       -1.8364885983
 H         -5.9349813766        0.0293857233       -2.2509746293
 H         -6.6098252609       -1.3503437466        0.3838315418
 H         -5.9680312082       -2.1742232584       -1.0480271989
 O         -3.6848488894       -1.5813899322       -0.8916665290
 C         -2.3132374989       -1.4459289318       -0.7090878554
 O         -1.6356820305       -2.0794223020       -1.5394321793
 O         -2.3866549094        0.7387142057        2.1793953505
 C         -0.3834146934       -0.4889072998        0.6235392824
 C          0.3305798986        0.4629749970       -0.3106746678
 C         -0.2081114820        0.8847849312       -1.5190557238
 C          0.4863945003        1.7647602530       -2.3309531480
 C          1.7302259071        2.2380621567       -1.9583546222
 C          2.2800743183        1.8247135271       -0.7491282069
 C          1.5813157705        0.9421967517        0.0612400240
 H          2.0142906186        0.6499153701        1.0042622822
 N          3.5287444341        2.3048633949       -0.3381633735
 S          4.5499378928        1.4120834166        0.6248851584
 O          4.0563798775        1.3629709358        1.9783649432
 O          5.8421849219        2.0396255538        0.4500672240
 C          4.5962355547       -0.2368193205       -0.0594855574
 C          4.7524007278       -1.2988801408        0.8076336976
 C          4.8481956621       -2.5818746035        0.2920347976
 C          4.7798221902       -2.7815685558       -1.0776446485
 C          4.6226475020       -1.7047917552       -1.9362433138
 C          4.5372541338       -0.4190118020       -1.4268994342
 H          4.4209858720        0.4295114626       -2.0806284498
 H          4.5673726167       -1.8623487704       -3.0013600237
 H          4.8488769672       -3.7807713530       -1.4779044311
 H          4.9750115740       -3.4192349223        0.9600020479
 H          4.7874983030       -1.1024984222        1.8671910946
 H          4.0215126542        2.8801215271       -1.0040863568
 H          2.2667928049        2.9297986363       -2.5893898108
 H          0.0513017414        2.0835472413       -3.2660517368
 H         -1.1761043616        0.5191267292       -1.8258939641
 H         -0.3283501668       -0.0512127757        1.6314770208
 C          0.3327888682       -1.8285489769        0.6462952101
 C          1.4199549792       -2.0975705218        1.6403168305
 C          0.0864349895       -2.7641170271        1.7909036516
 H          0.0047903176       -3.8204947240        1.5851849627
 H         -0.5690112060       -2.4212659095        2.5787726728
 H          2.2601502724       -2.6965565646        1.3253874861
 H          1.6756909707       -1.3173556394        2.3420355273
 H          0.4289281231       -2.2692692610       -0.3382971676
