  62
        -98.93600223
 C          2.7052027184        1.1491055529       -0.3027091640
 C          2.4611745525       -0.0169314390       -1.0694700756
 C          3.3705909457       -1.1456155078       -0.8218158730
 C          4.3552128292       -1.0344634359        0.0869511046
 C          5.3688293652       -2.0907638287        0.4340596293
 C          4.8733336311       -3.1191994186        1.4600154145
 C          3.8461323235       -4.1213925786        0.9320213208
 H          4.2270672383       -4.5836290325        0.0208126334
 H          3.7525742666       -4.9089720935        1.6823295221
 C          2.4567352317       -3.5246115943        0.6672705319
 H          2.3667023824       -2.5662907341        1.1844489185
 H          1.6920906133       -4.1846114133        1.0829557666
 C          2.1260581648       -3.3227342009       -0.8114925716
 H          2.0867324028       -4.2918322757       -1.3136816860
 H          1.1353881312       -2.8667457184       -0.8818596204
 C          3.1159001337       -2.4236314885       -1.5637576003
 H          4.0514486908       -2.9554368160       -1.7350033542
 H          2.6775272148       -2.1647825517       -2.5307180286
 H          4.4550570140       -2.5847521229        2.3161460911
 H          5.7457398331       -3.6758042820        1.8099747300
 H          5.6884042019       -2.6045836554       -0.4730237324
 H          6.2282975087       -1.5674702056        0.8585688550
 O          4.5571070155        0.1019507865        0.8052764865
 C          3.7391924543        1.2049898033        0.6377103287
 O          4.0346917614        2.1726673797        1.3672429362
 H         -0.0430505860        0.5337863129       -0.5073380152
 C         -0.2653062494        1.2974826488        0.2241096747
 C          0.6264450098        2.3481976787        0.3932539375
 C          0.3259227203        3.3307418489        1.3283427193
 C         -0.8398815288        3.2610249960        2.0719328792
 C         -1.7269858155        2.2138877241        1.8990599178
 C         -1.4341013148        1.2255223192        0.9677950106
 N         -2.3251701954        0.1435968959        0.7844731767
 S         -3.9011273262        0.5758909688        0.3439666865
 O         -3.8737448206        1.4182495461       -0.8323152672
 O         -4.5609277601        1.1304772748        1.4986024407
 C         -4.5947940648       -1.0172566602       -0.0454903608
 C         -5.0977529838       -1.7926464488        0.9815182307
 C         -5.6118912020       -3.0446543351        0.6842788610
 C         -5.6128253827       -3.4978591514       -0.6266327730
 C         -5.1043174313       -2.7077562245       -1.6465702825
 C         -4.5875795171       -1.4548773913       -1.3560198487
 H         -4.1896264154       -0.8043138946       -2.1187068047
 H         -5.1077107491       -3.0615902685       -2.6650347078
 H         -6.0143320639       -4.4722726327       -0.8560532789
 H         -6.0096788186       -3.6617246798        1.4737068993
 H         -5.0832247827       -1.3952937740        1.9828649807
 H         -1.9625184034       -0.4992576534        0.0909918904
 H         -2.6449828267        2.1570354893        2.4607981245
 H         -1.0615914141        4.0317247105        2.7947983935
 H          1.0167654681        4.1482676516        1.4761296554
 C          1.8829293960        2.4216060267       -0.4355530737
 H          2.5155907624        3.2140067157       -0.0061959319
 C          1.6162775840        2.7956864655       -1.8893821729
 C          0.2560439773        2.8328177197       -2.5134707532
 C          0.9748925664        4.1120635734       -2.2153775177
 H          1.3680655929        4.6936511259       -3.0353393565
 H          0.6119437793        4.7033277834       -1.3877426579
 H         -0.6030614890        2.5789851457       -1.9112812277
 H          0.1716096104        2.5111964989       -3.5405971881
 H          2.4263686645        2.4810574360       -2.5396480535
 O          1.5416712236       -0.1346269788       -1.9211063509
