  62
        -98.94047174
 C         -1.0926682711       -1.5639339427        0.6177427852
 C         -2.0720749579       -1.4039182678       -0.3912749033
 C         -3.1019058758       -0.3770004412       -0.1477178489
 C         -3.0467348711        0.3719141006        0.9681414901
 C         -3.9834490002        1.4460296874        1.4785189334
 C         -4.9026986631        2.1982349494        0.5176792697
 C         -4.1911659029        3.0105000109       -0.5620342002
 H         -4.9568320177        3.4752424700       -1.1874918850
 H         -3.6240360513        3.8113752420       -0.0812745166
 C         -3.2327953485        2.2260304506       -1.4563599897
 H         -2.3606448015        1.9103074667       -0.8810450560
 H         -2.8746546947        2.9030126845       -2.2363608769
 C         -3.8329118747        1.0013676453       -2.1456930572
 H         -3.1117540963        0.6655959442       -2.8950742144
 H         -4.7508392749        1.2812999471       -2.6658144187
 C         -4.1311981621       -0.1983365662       -1.2256630377
 H         -5.1253368972       -0.1298637910       -0.7891946844
 H         -4.1014744997       -1.1063712959       -1.8342603026
 H         -5.6140010441        1.5159585640        0.0616787101
 H         -5.4811428092        2.8961058006        1.1295277425
 H         -4.6051771923        0.9682299102        2.2441906099
 H         -3.3506169624        2.1674819241        2.0045290945
 O         -2.0675174960        0.1965880195        1.9036652304
 C         -1.0818709927       -0.7621075556        1.7590578414
 O         -0.2653704356       -0.7992136376        2.7029320620
 O         -2.1129546732       -2.0884844183       -1.4453756826
 C          0.0226227550       -2.5907855197        0.4950839970
 C          1.0055398339       -2.1185481374       -0.5495524956
 C          0.9341685928       -2.5051845611       -1.8822970731
 C          1.8421047722       -2.0086485220       -2.8007561399
 C          2.8320937892       -1.1245711884       -2.4128394469
 C          2.9156267749       -0.7347381441       -1.0798560031
 C          2.0033986846       -1.2321809222       -0.1613056499
 H          2.0773321205       -0.9338715816        0.8739136354
 N          3.9370640683        0.1292989531       -0.6625005583
 S          3.7559986547        1.2077691742        0.5950506643
 O          4.8888359454        2.0970842423        0.4497112667
 O          3.6614093139        0.5056577017        1.8488213931
 C          2.2598395470        2.1154515172        0.2540736220
 C          1.1305257237        1.9217226558        1.0214157212
 C         -0.0061848282        2.6617367662        0.7340709402
 C          0.0017610403        3.5706508554       -0.3115942785
 C          1.1443191413        3.7501879186       -1.0768302787
 C          2.2847477011        3.0187259699       -0.7917341457
 H          3.1992344220        3.1482257214       -1.3473164726
 H          1.1481626721        4.4595859848       -1.8885006101
 H         -0.8861559129        4.1432957670       -0.5284345259
 H         -0.8901260418        2.5154669212        1.3348514220
 H          1.1457089532        1.2050949962        1.8284592726
 H          4.5070943682        0.5071593160       -1.4042458850
 H          3.5420847401       -0.7431325816       -3.1305655332
 H          1.7761062993       -2.3131576634       -3.8342289787
 H          0.1548273516       -3.1768566550       -2.2008437043
 H          0.5407311862       -2.5845113240        1.4641639009
 C         -0.5073053579       -3.9866715028        0.2401096134
 C          0.4019143968       -5.1592692813        0.4459300877
 C         -0.7261623562       -4.9084289325        1.4000746279
 H         -1.5785743066       -5.5708681453        1.3780338958
 H         -0.4883750806       -4.5373020261        2.3867923046
 H          0.3266555546       -5.9968232359       -0.2303759444
 H          1.4067958526       -4.9561508001        0.7852918289
 H         -1.2234960236       -4.0361318422       -0.5695758144
