  62
        -98.94527230
 C          2.1450193462        0.8759964165        0.0781309251
 C          2.8946232860        0.2613737360        1.1085126066
 C          3.6254806737       -0.9564675527        0.7337077456
 C          3.5088266461       -1.4332095534       -0.5193779728
 C          4.2308764703       -2.6382539095       -1.0475980789
 C          5.5737738170       -2.2488661302       -1.6814881811
 C          6.4303464344       -1.3373583020       -0.8026235520
 H          7.3639499693       -1.1535476102       -1.3385605122
 H          5.9274772241       -0.3738449931       -0.6928360857
 C          6.7426879954       -1.9071856091        0.5881449507
 H          6.5713721156       -2.9842268936        0.5941589633
 H          7.8011468998       -1.7460279299        0.8027199279
 C          5.9542558236       -1.2626039573        1.7296773855
 H          6.0470097181       -0.1752947869        1.6704307622
 H          6.4040781655       -1.5786470906        2.6746154362
 C          4.4628991184       -1.6159359514        1.7934225614
 H          4.3395466976       -2.7005860559        1.7636199559
 H          4.0756666629       -1.2522617686        2.7498798158
 H          6.1254092660       -3.1630086965       -1.9083289707
 H          5.3742161538       -1.7298635323       -2.6218241289
 H          4.3916616307       -3.3442804977       -0.2349842561
 H          3.6027714729       -3.1089722887       -1.8060719542
 O          2.7443437148       -0.8389425500       -1.4714640362
 C          2.0528987922        0.3346057730       -1.2044045590
 O          1.4065222140        0.7818923980       -2.1700309287
 H         -0.0822937444        0.0710359228        1.1602659548
 C         -0.6901815160        0.7875568594        0.6203618036
 C         -0.0955057348        1.9452164924        0.1332545445
 C         -0.8876534470        2.8536876567       -0.5559404385
 C         -2.2319937691        2.5956568119       -0.7626350271
 C         -2.8164040905        1.4380547332       -0.2836448434
 C         -2.0346855543        0.5244544202        0.4115344760
 N         -2.6200503049       -0.6508468077        0.9161834112
 S         -3.5349238508       -1.5923653177       -0.1328796679
 O         -3.4728213467       -2.9305303440        0.4152228434
 O         -3.1071393391       -1.4373689859       -1.5037493095
 C         -5.1873623377       -0.9604464770        0.0712190016
 C         -5.8931902540       -0.5079249961       -1.0261935140
 C         -7.1792520280       -0.0238007898       -0.8423774739
 C         -7.7335061813       -0.0018693309        0.4282646643
 C         -7.0123026290       -0.4629569413        1.5196667380
 C         -5.7268749580       -0.9490540842        1.3426934860
 H         -5.1342649445       -1.3200661617        2.1620761760
 H         -7.4466061503       -0.4447318506        2.5062337085
 H         -8.7336620959        0.3765629249        0.5687214927
 H         -7.7413548659        0.3343088402       -1.6898479009
 H         -5.4186707293       -0.5394739342       -1.9942551687
 H         -1.9748284899       -1.2304480498        1.4338068809
 H         -3.8606989298        1.2302904318       -0.4497725427
 H         -2.8334658041        3.3072438642       -1.3073444174
 H         -0.4507881634        3.7597281216       -0.9421567055
 C          1.3784341620        2.1496109817        0.3848351847
 H          1.5202527009        2.3235445779        1.4622583241
 C          1.9688849619        3.3169197469       -0.3780422868
 C          1.8932700033        4.7042384394        0.1840093622
 C          3.2032765884        3.9777097271        0.1559335014
 H          3.9600591194        4.2994817998       -0.5437550242
 H          3.6019767977        3.6021483181        1.0871661465
 H          1.7525326812        5.5295019998       -0.4974856066
 H          1.4055057524        4.8304850573        1.1385846842
 H          1.8931505633        3.1909151420       -1.4524544657
 O          2.9434092949        0.7058209733        2.2878136288
