  62
        -98.93921306
 C          2.1601827651        0.4247870296        0.6181510032
 C          2.9101111661        0.4338128368       -0.5834071402
 C          3.6764294388       -0.7896527929       -0.8664636018
 C          3.5783634091       -1.8405276927       -0.0326606466
 C          4.3534742093       -3.1184088833       -0.1668825269
 C          5.6772072921       -3.0463161302        0.6078484163
 C          6.4890899010       -1.7810652184        0.3299944495
 H          5.9407189022       -0.9148829120        0.7073668432
 H          7.4120660214       -1.8538063557        0.9093813263
 C          6.8310145064       -1.5578377282       -1.1498219844
 H          7.8805267601       -1.2658202996       -1.2262799729
 H          6.7135377276       -2.4908369825       -1.7021783322
 C          6.0129097753       -0.4595042598       -1.8317056556
 H          6.4765210928       -0.2397121823       -2.7970824966
 H          6.0554235453        0.4540044460       -1.2332138332
 C          4.5392791693       -0.7930840264       -2.0968061873
 H          4.4660284228       -1.7495512259       -2.6180975256
 H          4.1329317478       -0.0142326027       -2.7487978165
 H          6.2728237298       -3.9254591439        0.3554468002
 H          5.4549581245       -3.0817481414        1.6768850077
 H          3.7496638007       -3.9322596404        0.2378778296
 H          4.5468851350       -3.3115032407       -1.2202093842
 O          2.7847830428       -1.8384687664        1.0693773245
 C          2.0655940364       -0.7106016241        1.4239621233
 O          1.3811282131       -0.8435095414        2.4601483162
 O          2.9512385959        1.4081596230       -1.3779103836
 C          1.3642969360        1.6462759390        1.0497098575
 C          0.1943482603        1.8267995093        0.1120453288
 C          0.0749193626        2.8808549343       -0.7822235205
 C         -1.0262752797        2.9644190344       -1.6181678484
 C         -2.0257221588        2.0102955607       -1.5778909131
 C         -1.9173705534        0.9529939280       -0.6824099375
 C         -0.8145774054        0.8711676322        0.1535418694
 H         -0.7240086829        0.0488635256        0.8531710829
 N         -2.9260065879       -0.0322209492       -0.6359568356
 S         -4.5127235715        0.5406409683       -0.5029771174
 O         -4.9595576893        0.9511944924       -1.8099905574
 O         -4.5905175849        1.5454560355        0.5345285487
 C         -5.3750109104       -0.9360231977       -0.0034684089
 C         -5.8394155891       -1.8020836912       -0.9747251006
 C         -6.4856497129       -2.9634288177       -0.5819624383
 C         -6.6544027871       -3.2382234036        0.7669897987
 C         -6.1843579953       -2.3581744022        1.7303266490
 C         -5.5365127833       -1.1953444744        1.3444334230
 H         -5.1643520974       -0.4788310766        2.0595113046
 H         -6.3192545700       -2.5725664749        2.7783384218
 H         -7.1582505264       -4.1423439672        1.0703523600
 H         -6.8553117465       -3.6488764148       -1.3274244383
 H         -5.6931676806       -1.5424440158       -2.0101281036
 H         -2.7420049234       -0.7114965671        0.0909591616
 H         -2.8917507610        2.0738907320       -2.2166963739
 H         -1.1074683404        3.7874132643       -2.3123520421
 H          0.8460656285        3.6313007193       -0.8328648052
 H          0.9570136832        1.4020848236        2.0412209027
 C          2.2471798359        2.8684494308        1.1780694363
 C          1.7717821106        4.0372326990        1.9859284068
 C          2.8813618348        3.1716893350        2.5008738786
 H          3.8845116937        3.5707369071        2.5122030503
 H          2.6692122841        2.5020419722        3.3219470028
 H          2.0128109477        5.0326799983        1.6455896413
 H          0.8033891397        3.9562490705        2.4566057989
 H          2.8326333757        3.0665572188        0.2889070077
