  62
        -98.93364849
 C         -2.5741806968       -0.8862598959        0.1742291966
 C         -2.7677633112        0.1836424794        1.0757730807
 C         -3.3227658960        1.4337985578        0.5217218531
 C         -3.6023318976        1.4876095025       -0.7941867001
 C         -4.1193294018        2.6596000690       -1.5846780625
 C         -3.0268372922        3.7034121406       -1.8725610703
 C         -2.1096858358        4.0192816094       -0.6934870421
 H         -1.6404184776        3.0960706290       -0.3479553743
 H         -1.3115616777        4.6706371025       -1.0592075934
 C         -2.7810069306        4.7207041614        0.4849925914
 H         -2.0014465995        4.9430725787        1.2181820783
 H         -3.1972267179        5.6714619456        0.1445423798
 C         -3.8875372194        3.9346249305        1.1905601871
 H         -4.8046763050        3.9437193456        0.6080304918
 H         -4.1098179595        4.4551830543        2.1268216278
 C         -3.5162866190        2.5039505849        1.5694967677
 H         -4.2832756775        2.1155776385        2.2507959612
 H         -2.5912302206        2.5180572837        2.1571849877
 H         -3.5072096022        4.6198038792       -2.2190726275
 H         -2.4028306340        3.3210434681       -2.6840422604
 H         -4.4791244053        2.2622013958       -2.5361631717
 H         -4.9645929976        3.1104062264       -1.0733729956
 O         -3.3878754911        0.4316051678       -1.6298933567
 C         -2.8680418592       -0.7691989281       -1.1839502274
 O         -2.7210849492       -1.6297699824       -2.0717034599
 O         -2.4741916499        0.1097868493        2.3013331020
 C         -1.9858498208       -2.1871200978        0.6894350861
 C         -0.6471410721       -2.4311731648        0.0354416187
 C         -0.3002061376       -3.6208332904       -0.5890980080
 C          0.9468576889       -3.7656056565       -1.1738368487
 C          1.8701437516       -2.7374257449       -1.1488503066
 C          1.5386999649       -1.5462723697       -0.5144832752
 C          0.2926979371       -1.4076348312        0.0773647672
 H          0.0337278238       -0.4811050507        0.5758323272
 N          2.4587077895       -0.4778643859       -0.4949233464
 S          4.0449492440       -0.8355997343       -0.0314911302
 O          4.7104771057       -1.4807482108       -1.1345596125
 O          4.0464077933       -1.5631456743        1.2188848067
 C          4.7047650202        0.8029686731        0.1979443652
 C          5.1143058872        1.5125168993       -0.9149686002
 C          5.6027828106        2.7982465144       -0.7462188795
 C          5.6722156856        3.3498624249        0.5246325403
 C          5.2591325810        2.6245186446        1.6320245715
 C          4.7682073094        1.3383399560        1.4702424674
 H          4.4436275106        0.7353946723        2.3033423115
 H          5.3171450699        3.0546098174        2.6190029215
 H          6.0533573291        4.3505732230        0.6536039521
 H          5.9272766852        3.3648007478       -1.6040787126
 H          5.0496668212        1.0399806428       -1.8810958445
 H          2.1096239972        0.2992991890        0.0505248857
 H          2.8426559045       -2.8426039325       -1.6013994925
 H          1.2022942378       -4.6943189708       -1.6617224354
 H         -1.0061184841       -4.4340167900       -0.6253040322
 H         -1.8127968047       -2.0243478885        1.7639631802
 C         -2.9684928078       -3.3256660835        0.5221959781
 C         -2.9129574111       -4.5088444941        1.4403177352
 C         -4.0329588203       -3.5206077466        1.5585737894
 H         -5.0198296901       -3.8153372897        1.2348301147
 H         -4.0339322689       -2.8456208355        2.4020942730
 H         -3.1329535961       -5.4856502265        1.0368695322
 H         -2.1543084470       -4.5099162514        2.2084229323
 H         -3.2430740625       -3.4910126044       -0.5133435448
