  62
        -98.93714276
 C         -2.4498911084       -1.4420548688        0.1524314416
 C         -2.5926177077       -0.4676164359       -0.8641069972
 C         -3.5135685670        0.6441846025       -0.5728068472
 C         -4.1430766062        0.6909824507        0.6144856044
 C         -5.0231299060        1.8095330708        1.0944716682
 C         -4.1537501909        2.9987489070        1.5515635245
 C         -4.3096724404        4.2593350306        0.7005611722
 H         -5.2540701257        4.7450073371        0.9549339007
 H         -3.5025770470        4.9410846824        0.9774301614
 C         -4.2854197062        4.0493081206       -0.8164555404
 H         -4.1368004191        5.0312259355       -1.2706988640
 H         -5.2604227228        3.6944031066       -1.1537146738
 C         -3.2070458112        3.0952775672       -1.3466188327
 H         -2.3638536916        3.0413743256       -0.6562457547
 H         -2.8211059462        3.5059852338       -2.2822225009
 C         -3.7080087993        1.6712075757       -1.6540703714
 H         -4.7636437615        1.7087258408       -1.9363488622
 H         -3.1508383084        1.2850628983       -2.5126467699
 H         -4.3969488706        3.2518592534        2.5845986694
 H         -3.1079451101        2.6823210745        1.5451637076
 H         -5.7008284467        2.1133244998        0.2999057671
 H         -5.6104513459        1.4259756922        1.9288539321
 O         -3.9791973438       -0.2599726369        1.5690787775
 C         -3.1367747459       -1.3377766833        1.3667165255
 O         -3.0870236769       -2.1321288617        2.3264104485
 O         -1.9930948878       -0.4996967675       -1.9735726381
 C         -1.5275615686       -2.6481986672        0.0338981227
 C         -0.1048654897       -2.2260756179        0.3138928026
 C          0.5327690885       -2.6083075486        1.4884565674
 C          1.8181212523       -2.1761492651        1.7647283430
 C          2.4897068267       -1.3499902850        0.8811540378
 C          1.8559505491       -0.9532058085       -0.2888474732
 C          0.5749068824       -1.4021628613       -0.5720053362
 H          0.0806821277       -1.0736568608       -1.4741792497
 N          2.5215242061       -0.0914882646       -1.1834167491
 S          3.0592310532        1.3694270850       -0.5474741852
 O          2.2514088746        1.7894514563        0.5756416349
 O          3.1228147141        2.2793238965       -1.6705541982
 C          4.7165851135        1.0035180898       -0.0081080868
 C          5.5987798876        0.4804963037       -0.9334905759
 C          6.8942623018        0.1931545756       -0.5346380213
 C          7.2844217181        0.4352619762        0.7742913482
 C          6.3879257385        0.9641030212        1.6901982263
 C          5.0898326482        1.2528031710        1.2979046404
 H          4.3558514363        1.6577174031        1.9764084451
 H          6.6928239302        1.1516592766        2.7072285387
 H          8.2932088994        0.2103631582        1.0826227775
 H          7.5943337374       -0.2179641487       -1.2439467464
 H          5.2551303773        0.3108166066       -1.9401391128
 H          1.9909599332        0.0781920304       -2.0271422305
 H          3.4872102106       -1.0021157664        1.0952603420
 H          2.3006673121       -2.4816456878        2.6806142890
 H          0.0034048045       -3.2307936029        2.1953739330
 H         -1.8364691333       -3.3336696650        0.8340626658
 C         -1.6538471122       -3.3732317444       -1.2910504316
 C         -1.1899730184       -4.7945464203       -1.3843185015
 C         -2.6545737437       -4.4795020139       -1.4256173474
 H         -3.1814894316       -4.5850491128       -2.3620336277
 H         -3.2536200328       -4.7195440308       -0.5590593887
 H         -0.7081379840       -5.1199342946       -2.2933857690
 H         -0.7957452628       -5.2506724286       -0.4888748108
 H         -1.5043194329       -2.7356652551       -2.1518249128
