  62
        -98.94776130
 C         -0.7795222143       -1.2707378144        0.0241074284
 C         -1.4881811759       -0.6092381032        1.0543029743
 C         -2.4080728015        0.4470105576        0.6175967318
 C         -2.4789618637        0.7728039505       -0.6858279873
 C         -3.3810822178        1.8140568848       -1.2902513809
 C         -4.8012372471        1.3074081463       -1.5804204492
 C         -5.6844816964        1.1028943584       -0.3487230093
 H         -5.6742679832        2.0075320437        0.2599695004
 H         -6.7064035990        0.9639263164       -0.7071276483
 C         -5.2986393061       -0.1057458274        0.5156752463
 H         -4.6573437996       -0.7768962651       -0.0603517814
 H         -6.1975883154       -0.6690445767        0.7763306703
 C         -4.5924967604        0.2487624621        1.8246182515
 H         -5.2740635852        0.8077174985        2.4698216714
 H         -4.3325796983       -0.6814489083        2.3364416126
 C         -3.3066403969        1.0668267654        1.6450482115
 H         -3.5541313709        2.0918716132        1.3704389511
 H         -2.7695920970        1.0753129276        2.5969776512
 H         -4.7318198246        0.3706852621       -2.1380227392
 H         -5.2841087241        2.0436229017       -2.2270163380
 H         -3.4344426187        2.6837267537       -0.6359310184
 H         -2.9229030869        2.1093070958       -2.2359250901
 O         -1.7089962435        0.1755077500       -1.6331578237
 C         -0.8734409885       -0.8840829496       -1.3128236086
 O         -0.2776336168       -1.3809575018       -2.2869391860
 H          1.5302576949       -0.2063405758        0.4721641695
 C          2.0964126346       -1.0014925538        0.0094779439
 C          1.5113625683       -2.2530076582       -0.1352709201
 C          2.2555435307       -3.2707335517       -0.7183300520
 C          3.5466009084       -3.0307355052       -1.1552754997
 C          4.1232366350       -1.7829659579       -1.0126545542
 C          3.3887834838       -0.7581293991       -0.4247830059
 N          3.9329622275        0.5247485339       -0.2994777893
 S          3.4004936152        1.6133087022        0.8402312815
 O          4.4215995287        2.6400208958        0.8474830415
 O          3.1375192955        0.9827312404        2.1129215923
 C          1.9103305188        2.3024721083        0.1552561739
 C          1.9194574269        2.7067273516       -1.1646837518
 C          0.7877961160        3.3108504073       -1.6869968927
 C         -0.3234340703        3.5092270563       -0.8825067592
 C         -0.3194253801        3.0916222834        0.4388411059
 C          0.8069087440        2.4800347169        0.9648771243
 H          0.8445740217        2.1298428597        1.9850391640
 H         -1.1842907833        3.2378399908        1.0654008650
 H         -1.1976675096        3.9931937326       -1.2875651127
 H          0.7761858210        3.6279802210       -2.7173920789
 H          2.8042227208        2.5444925344       -1.7575713773
 H          4.9107795726        0.6200282425       -0.5264638332
 H          5.1290741697       -1.5962721533       -1.3562192411
 H          4.1127164055       -3.8283619854       -1.6119160215
 H          1.8244803583       -4.2513318675       -0.8356055523
 C          0.1067056154       -2.4496802777        0.3769902664
 H          0.1471776764       -2.4691041060        1.4772639641
 C         -0.5357928358       -3.7343704933       -0.1082080584
 C         -0.3442068603       -5.0151523988        0.6462321564
 C         -1.6693864156       -4.3168196186        0.6797105571
 H         -2.4995580834       -4.7542820848        0.1455915867
 H         -1.9556024036       -3.8031678874        1.5860535832
 H          0.2657328859       -4.9846315728        1.5365337984
 H         -0.2666951955       -5.9363508194        0.0885250139
 H         -0.6029221212       -3.7798819516       -1.1898331513
 O         -1.3677833255       -0.8952487686        2.2768340095
