  62
        -98.94509931
 C          2.5622803356        0.0428063624        0.3711238954
 C          2.2411720202       -0.5781467903       -0.8601132656
 C          1.9672952440       -2.0205110081       -0.7979058100
 C          2.0531108434       -2.6584338033        0.3831236613
 C          1.8293245305       -4.1294472984        0.5847544875
 C          0.3796064518       -4.4500134483        0.9685742616
 C         -0.6661597732       -3.8091400052        0.0562332673
 H         -1.6437357487       -4.1712337229        0.3841123195
 H         -0.6658668734       -2.7269180541        0.2046736705
 C         -0.4871142118       -4.1107250429       -1.4379721994
 H          0.1346004062       -4.9977242483       -1.5689630256
 H         -1.4673578961       -4.3342452734       -1.8639822308
 C          0.0958485788       -2.9508047012       -2.2485703638
 H         -0.4289153422       -2.0287556430       -1.9839607347
 H         -0.0875360981       -3.1474014977       -3.3085301403
 C          1.6020584521       -2.7101918743       -2.0814256698
 H          2.1421101481       -3.6542343677       -2.1841410530
 H          1.9262433940       -2.0386409323       -2.8819069437
 H          0.2573110423       -5.5353607074        0.9590258582
 H          0.2035077985       -4.0966452946        1.9875106044
 H          2.0962494450       -4.6544265791       -0.3307147975
 H          2.4880269226       -4.4638208258        1.3888647295
 O          2.3587580330       -2.0262694584        1.5469907156
 C          2.5914122554       -0.6609055089        1.5728190172
 O          2.8248677655       -0.1997109359        2.7112048419
 H          0.2467998857        0.9273441214        0.5821832586
 C          0.3980730683        1.8419272577        0.0273107354
 C          1.6890417013        2.3152580580       -0.1657882467
 C          1.8599367915        3.5081179774       -0.8571423149
 C          0.7627355388        4.1939093557       -1.3498689858
 C         -0.5178463706        3.7027402432       -1.1804869976
 C         -0.6988771479        2.5042638763       -0.4963560262
 N         -1.9817677859        1.9471862562       -0.3716152091
 S         -2.2731282112        0.6127859317        0.6022613516
 O         -2.0139756296        0.9258989214        1.9928176353
 O         -1.5791368816       -0.5249794302        0.0577256630
 C         -4.0268611801        0.4334048544        0.3401747412
 C         -4.9088390705        1.0766945494        1.1878956624
 C         -6.2701025724        0.9576364868        0.9557339423
 C         -6.7240285852        0.2025116422       -0.1152771936
 C         -5.8270903089       -0.4397929735       -0.9558502828
 C         -4.4647917935       -0.3243374767       -0.7290251870
 H         -3.7293132949       -0.8104546962       -1.3489908516
 H         -6.1828655986       -1.0294342570       -1.7852550929
 H         -7.7836977348        0.1111124150       -0.2939770097
 H         -6.9698390673        1.4525619596        1.6096936558
 H         -4.5109604985        1.6420408157        2.0153460288
 H         -2.7323449244        2.6218549785       -0.3625761080
 H         -1.3702958942        4.2293567887       -1.5804486379
 H          0.9091047419        5.1223154646       -1.8808299099
 H          2.8522551754        3.8997475200       -1.0111624102
 C          2.8435570113        1.5327943386        0.4144450463
 H          2.9320673013        1.7955692613        1.4801754351
 C          4.1618147584        1.8315800107       -0.2734658350
 C          5.0490804829        2.9332714407        0.2209812551
 C          5.4381386570        1.5030000382        0.4391915025
 H          6.2582323239        1.0947811763       -0.1319909540
 H          5.3536588210        1.0940202451        1.4359400610
 H          5.6078997196        3.5084851137       -0.5018594912
 H          4.7147560849        3.5000527288        1.0769808463
 H          4.1206486453        1.6436322798       -1.3403224371
 O          2.2034606447        0.0374317666       -1.9579878841
