  62
        -98.94310297
 C         -2.5598765374       -0.1769097926        0.5349358431
 C         -2.2027525488        0.3621645936       -0.7265867409
 C         -1.9851647255        1.8168578499       -0.7656997788
 C         -2.0872621903        2.5333040703        0.3670593689
 C         -1.8631261956        4.0135999324        0.4765234113
 C         -0.4064690973        4.3410274798        0.8293476938
 C          0.6221780601        3.6407933611       -0.0590832912
 H          1.6090415692        3.9984708564        0.2450530541
 H          0.6037487701        2.5654862010        0.1371973154
 C          0.4326086396        3.8784691773       -1.5637724704
 H          1.4085600952        4.0841274650       -2.0081323002
 H         -0.1917357343        4.7584416543       -1.7267798523
 C         -0.1564239290        2.6836868599       -2.3166078135
 H         -0.0070386823        2.8458879267       -3.3877972399
 H          0.3874839519        1.7783427611       -2.0365350933
 C         -1.6532867871        2.4297375461       -2.0969452067
 H         -2.2124558171        3.3569774173       -2.2441846946
 H         -1.9806705413        1.7058686020       -2.8491107333
 H         -0.2236391860        4.0400163687        1.8638191136
 H         -0.2722734461        5.4225715268        0.7599411326
 H         -2.1338392425        4.4848373958       -0.4665224004
 H         -2.5123806988        4.3988896874        1.2651226225
 O         -2.3874246451        1.9756385866        1.5694707005
 C         -2.6077697104        0.6134917646        1.6845259385
 O         -2.8414143219        0.2316927538        2.8507349593
 H         -0.2028792968       -1.2359752367        1.1408651951
 C         -0.3452144865       -2.0302033682        0.4204692881
 C         -1.6349734388       -2.4157968478        0.0762910930
 C         -1.7976981653       -3.4416430977       -0.8443548521
 C         -0.6911586001       -4.0418517769       -1.4210391093
 C          0.5890644045       -3.6243250069       -1.1086610871
 C          0.7615001441       -2.6043887657       -0.1791162448
 N          2.0457123624       -2.1498394723        0.1773926862
 S          2.2100169543       -0.4873723364        0.4454744020
 O          1.8363273162       -0.1978862186        1.8091509988
 O          1.5228516126        0.2561722378       -0.5830451745
 C          3.9749182158       -0.3032236696        0.2683180125
 C          4.7893357185       -0.7924288264        1.2725154486
 C          6.1634395152       -0.6790485003        1.1350814389
 C          6.6973764571       -0.0807997047        0.0029482368
 C          5.8674335862        0.4080112050       -0.9944318687
 C          4.4916515318        0.2956467552       -0.8643598433
 H          3.8060387264        0.6644964027       -1.6104016338
 H          6.2846422562        0.8755644136       -1.8716392328
 H          7.7672452063        0.0071381303       -0.1010366265
 H          6.8115979028       -1.0556481382        1.9097786242
 H          4.3277326541       -1.2392444644        2.1376250255
 H          2.7620778305       -2.4875225311       -0.4519349149
 H          1.4480269921       -4.0758967100       -1.5816534171
 H         -0.8299557008       -4.8332457714       -2.1421258633
 H         -2.7883631297       -3.7519352656       -1.1334036683
 C         -2.7701077212       -1.6698082062        0.7342161898
 H         -2.6781594819       -1.8210756370        1.8235655602
 C         -4.1491263874       -2.1787137165        0.3430035456
 C         -5.3347595195       -1.2615263129        0.3288316169
 C         -4.8017446028       -1.8167630372       -0.9559406622
 H         -5.3822463452       -2.5731234384       -1.4638972337
 H         -4.2602235951       -1.1603148035       -1.6177348810
 H         -6.2758622030       -1.6352232344        0.7036449932
 H         -5.1601292611       -0.2177478549        0.5477684787
 H         -4.3279427123       -3.1831597494        0.7147464943
 O         -2.0887212396       -0.3214861553       -1.7765787193
