  62
        -98.93918442
 C         -2.6234470605       -0.9428263297        0.4662087492
 C         -2.6558362705        0.2418546598        1.2434033700
 C         -3.6064036802        1.2710044902        0.8116541706
 C         -4.3708078901        1.0573451811       -0.2749780397
 C         -5.4149553799        1.9929469016       -0.8215193392
 C         -4.8570545596        3.0873498121       -1.7414671684
 C         -4.0728948295        4.1929705615       -1.0338050775
 H         -3.9290758193        4.9973365020       -1.7578752970
 H         -4.6716568396        4.5946758611       -0.2157612173
 C         -2.7004838897        3.7544872110       -0.5038986776
 H         -2.4055308697        2.8191235012       -0.9857401382
 H         -1.9507468095        4.5019194910       -0.7729275570
 C         -2.6352211799        3.5726616199        1.0126327923
 H         -2.7978148998        4.5343476596        1.5042600329
 H         -1.6317465100        3.2263800296        1.2727035322
 C         -3.6448947102        2.5620839397        1.5725969614
 H         -4.6493399001        2.9842886999        1.5537591716
 H         -3.3748709403        2.3455172690        2.6090606313
 H         -5.7058669394        3.5444902126       -2.2552706182
 H         -4.2240802895        2.6181527925       -2.4982880286
 H         -6.1087938499        1.3787044121       -1.3994682197
 H         -5.9614173399        2.4523394111        0.0027210310
 O         -4.2913152502       -0.0816906784       -1.0109107304
 C         -3.4050289604       -1.0980453588       -0.6792958110
 O         -3.4265844004       -2.0615087683       -1.4673426616
 O         -1.9282923306        0.4262343090        2.2566100103
 C         -1.6589511008       -2.0409179401        0.8839444786
 C         -0.4902569806       -2.0496121897       -0.0712436012
 C         -0.3573168906       -2.9664738990       -1.1054043718
 C          0.7266771695       -2.8965030986       -1.9638586716
 C          1.6960566996       -1.9228803688       -1.8083327308
 C          1.5745811996       -1.0031006095       -0.7739722102
 C          0.4877654595       -1.0741497399        0.0850200996
 H          0.3840819495       -0.3554068604        0.8882275801
 N          2.5550484298       -0.0046991398       -0.6115639994
 S          4.1638100197       -0.5218513900       -0.6984749595
 O          4.5498115999       -0.5737881791       -2.0864366895
 O          4.3283748494       -1.7491615305        0.0478758897
 C          5.0153241498        0.8158294294        0.1142352815
 C          5.2838445096        0.7170099384        1.4664143815
 C          5.9335109696        1.7650009179        2.0991863223
 C          6.2993629999        2.8887539583        1.3734508231
 C          6.0229633301        2.9731499093        0.0168921331
 C          5.3745011401        1.9284333198       -0.6223713177
 H          5.1487937102        1.9452893405       -1.6758206777
 H          6.3118748204        3.8472598896       -0.5440086862
 H          6.8063443700        3.7021381279        1.8681135537
 H          6.1525060195        1.7005622171        3.1529101723
 H          4.9915013394       -0.1799196719        1.9888375009
 H          2.3970873997        0.5441569797        0.2229880510
 H          2.5490746198       -1.8676345085       -2.4655841506
 H          0.8187183995       -3.6127837581       -2.7666853121
 H         -1.1099584307       -3.7240416188       -1.2480637524
 H         -1.2814317409       -1.7297776308        1.8681365589
 C         -2.3393485010       -3.3844187901        1.0319212576
 C         -1.6367584713       -4.4791323307        1.7761057270
 C         -2.8319507113       -3.8084251810        2.3818078773
 H         -3.7582489013       -4.3597775809        2.4414279468
 H         -2.6738498213       -3.1306227015        3.2079577178
 H         -1.7399520614       -5.4930439505        1.4212273963
 H         -0.6641261213       -4.2554023812        2.1881093973
 H         -2.9437781909       -3.6581575495        0.1763748874
