  62
        -98.94094838
 C          2.5839344670        1.3773327407        0.2510432548
 C          2.8171846986        0.5351350795       -0.8637689073
 C          3.6658565106       -0.6385892706       -0.6107978518
 C          4.1591808006       -0.8651722590        0.6191912355
 C          5.0416560658       -2.0136696766        1.0261105875
 C          4.2729022053       -3.2974198737        1.3677730387
 C          3.6757924218       -4.0366734484        0.1696316597
 H          4.4504171115       -4.1960611956       -0.5811992194
 H          3.3579424118       -5.0188687374        0.5248151407
 C          2.4715784703       -3.3340950075       -0.4735691736
 H          2.0644928114       -2.5932369199        0.2198545182
 H          1.6760587430       -4.0612630339       -0.6549914307
 C          2.7750249896       -2.6529957083       -1.8082370000
 H          3.0539654030       -3.4069308092       -2.5478633940
 H          1.8604280536       -2.1652940909       -2.1559798636
 C          3.8861444407       -1.5965655424       -1.7430338800
 H          4.8577831614       -2.0803841045       -1.6480277634
 H          3.8679067636       -1.0234841849       -2.6733043262
 H          3.4774898699       -3.0513685661        2.0753574181
 H          4.9699966259       -3.9708176231        1.8716388224
 H          5.7645220031       -2.2199346182        0.2364460244
 H          5.5820075177       -1.6888811754        1.9177980848
 O          3.9126288374       -0.0335668692        1.6655379398
 C          3.1123107798        1.0851739065        1.5125153901
 O          2.9550974320        1.7451803029        2.5590666992
 H          0.2507695267        0.8824571896       -1.2421681381
 C         -0.3248385026        1.3218754634       -0.4401752595
 C          0.2747340837        2.2631549486        0.3865474435
 C         -0.4740741535        2.8136750349        1.4190576890
 C         -1.7896089966        2.4296726870        1.6158215479
 C         -2.3830393216        1.4929574448        0.7887160675
 C         -1.6408169430        0.9335453234       -0.2434754227
 N         -2.2351079190       -0.0263100428       -1.0875445693
 S         -2.8313655189       -1.4075172758       -0.3349560016
 O         -2.1197945172       -1.6890580949        0.8914116552
 O         -2.8053140530       -2.4405527882       -1.3472594017
 C         -4.5240368310       -0.9847440308        0.0200567980
 C         -5.3298862957       -0.5960266599       -1.0323881042
 C         -6.6499067780       -0.2617576737       -0.7759006136
 C         -7.1394499841       -0.3237347655        0.5205305104
 C         -6.3184687536       -0.7191852328        1.5654796627
 C         -4.9964263589       -1.0540786955        1.3158449865
 H         -4.3184616592       -1.3599756525        2.0967417089
 H         -6.7006727142       -0.7667959702        2.5725150364
 H         -8.1669520132       -0.0619234360        0.7179079442
 H         -7.2913472783        0.0466703907       -1.5856193437
 H         -4.9098596796       -0.5638984431       -2.0238160186
 H         -1.6393123460       -0.2874721482       -1.8612493257
 H         -3.4056716991        1.1874385612        0.9394196489
 H         -2.3585977900        2.8630106351        2.4240726294
 H         -0.0115175371        3.5307120253        2.0814489400
 C          1.7225797842        2.6303718608        0.1864213696
 H          2.0340365322        3.2347265125        1.0524726569
 C          1.9756895334        3.4623616324       -1.0643712536
 C          0.9448784129        3.7181317867       -2.1192718307
 C          1.3488652489        4.8198246021       -1.1896218434
 H          1.9456178713        5.6337188560       -1.5722713588
 H          0.6434537705        5.1088237768       -0.4249485400
 H         -0.0350702023        3.2844180373       -1.9973950145
 H          1.2806533811        3.7515145230       -3.1446273980
 H          2.9993503820        3.3677598455       -1.4114825116
 O          2.3532880733        0.7297873752       -2.0178306982
