  62
        -98.94284517
 C          2.0098823195        1.4676775074       -0.0159275007
 C          1.6786453532        0.1805869002       -0.5034643963
 C          2.8135480669       -0.7097961775       -0.7926891598
 C          4.0683627055       -0.2739451980       -0.5842697274
 C          5.3066449543       -1.1001200138       -0.7732075173
 C          5.6916672938       -1.8243116986        0.5249331456
 C          4.5305491546       -2.5633769986        1.1907444217
 H          4.9284014100       -3.0561685143        2.0805570270
 H          3.7918254916       -1.8341216945        1.5312916258
 C          3.8407421236       -3.6028887510        0.2962117477
 H          3.6847743722       -4.5147579823        0.8764387541
 H          4.4904851044       -3.8593702507       -0.5413910449
 C          2.4724288355       -3.1740669457       -0.2371573321
 H          1.8484789242       -2.8278007266        0.5909297361
 H          1.9883982846       -4.0530392920       -0.6714011780
 C          2.4929118723       -2.0823258272       -1.3143655481
 H          3.1844150151       -2.3635393487       -2.1111958129
 H          1.4876341012       -2.0137937354       -1.7409463631
 H          6.4940544131       -2.5296813297        0.3011563030
 H          6.0766872907       -1.0854063757        1.2316867188
 H          5.1377619005       -1.8230725615       -1.5689469985
 H          6.1227565827       -0.4368176156       -1.0646946232
 O          4.3493537732        0.9687787250       -0.1148164806
 C          3.3343520976        1.8583412415        0.1984706481
 O          3.7323387951        2.9463293958        0.6598517758
 O          0.5020536784       -0.2218833217       -0.6877726091
 C          0.9352314073        2.4753011951        0.3548407284
 C         -0.1588799037        1.7968291409        1.1435004355
 C          0.1721812836        1.2109794067        2.3635638719
 C         -0.7873049719        0.5798895960        3.1300954727
 C         -2.1004339870        0.5213206006        2.6965009371
 C         -2.4434287638        1.1050727131        1.4833191403
 C         -1.4762536650        1.7430643548        0.7162500352
 H         -1.7666866646        2.1615088032       -0.2325348749
 N         -3.7790318483        1.0920245358        1.0404954121
 S         -4.1950580228        0.4942972151       -0.4666997105
 O         -3.4835204139        1.2068025619       -1.4946737984
 O         -5.6389718591        0.5917208363       -0.5058280812
 C         -3.7280671793       -1.2275299490       -0.4271648866
 C         -2.3935524204       -1.5712218279       -0.5057420927
 C         -2.0477518936       -2.9112098801       -0.4136187676
 C         -3.0289668094       -3.8757871563       -0.2474109985
 C         -4.3651170379       -3.5115111314       -0.1713171161
 C         -4.7194171788       -2.1751520827       -0.2557979932
 H         -5.7443726782       -1.8450443283       -0.2019526470
 H         -5.1283742817       -4.2623009664       -0.0436801175
 H         -2.7505488213       -4.9156796015       -0.1777090247
 H         -1.0055115614       -3.1831427009       -0.4707338621
 H         -1.6389065036       -0.8122580891       -0.6356068209
 H         -4.4286280054        0.7302973580        1.7249513424
 H         -2.8537128683        0.0292275211        3.2932065128
 H         -0.5126335508        0.1273615295        4.0710879205
 H          1.2001013308        1.2546092448        2.6990760921
 H          1.4362171492        3.1915638692        1.0277981145
 C          0.4078579916        3.2840384916       -0.8205944104
 C          1.2784176588        3.6034024841       -1.9982599721
 C          0.1187529049        2.6684467590       -2.1548789740
 H         -0.7539822178        3.0046004705       -2.6960963153
 H          0.3167675545        1.6152881434       -2.2741554462
 H          1.2104157198        4.5893406392       -2.4329655473
 H          2.2762288537        3.1889353342       -2.0114231033
 H         -0.2638102063        4.0739173259       -0.4966413165
