  62
        -98.93970428
 C          2.0764517735        1.3808675093        0.6337827018
 C          1.9762811728        0.1091983672        1.2559568588
 C          3.0353569162       -0.8572769114        0.9454185307
 C          4.0315179425       -0.4914850858        0.1185904115
 C          5.1411021000       -1.3927489565       -0.3383795676
 C          4.7694681481       -2.1062613957       -1.6461447090
 C          3.3874428782       -2.7598162187       -1.6230718823
 H          2.6257320901       -1.9800821350       -1.5482145561
 H          3.2474619321       -3.2547353820       -2.5865976244
 C          3.1847948759       -3.7766440724       -0.4910109681
 H          4.1526923081       -4.0893802762       -0.0974742874
 H          2.7008502258       -4.6650978205       -0.9019583723
 C          2.3060335757       -3.2794951258        0.6584586830
 H          1.3747399347       -2.8704904386        0.2590699169
 H          2.0508209824       -4.1375711001        1.2857860680
 C          2.9371728999       -2.2200233793        1.5702085597
 H          2.2882735861       -2.1031511566        2.4429308332
 H          3.9166854173       -2.5603465853        1.9120785367
 H          5.5288480834       -2.8621764886       -1.8548211123
 H          4.7880674174       -1.3738482663       -2.4566187426
 H          6.0322411119       -0.7856572472       -0.5065837951
 H          5.3532455841       -2.1233039234        0.4398097025
 O          4.1074402816        0.7397006758       -0.4434996213
 C          3.1212317182        1.6996812589       -0.2341485980
 O          3.3133055218        2.7543837609       -0.8650054379
 H         -1.6123267223        1.7834213929        1.6028199382
 C         -1.4658577093        1.7517348590        0.5319400587
 C         -0.2128645226        2.0293200821        0.0080357231
 C         -0.0322758043        1.9553187891       -1.3698331975
 C         -1.0894774072        1.6250412547       -2.1977022646
 C         -2.3409259912        1.3529004570       -1.6715701177
 C         -2.5276265144        1.4089247701       -0.2968641840
 N         -3.7931926828        1.1333822404        0.2511591029
 S         -4.5849280018       -0.2767991310       -0.1822589381
 O         -4.9689148046       -0.1997646531       -1.5687131995
 O         -5.6596512124       -0.4077882270        0.7740404512
 C         -3.3920367440       -1.5801286597        0.0541219562
 C         -3.2573566401       -2.1237104416        1.3162672154
 C         -2.3093530387       -3.1116929315        1.5238550936
 C         -1.5099567328       -3.5311811048        0.4719251542
 C         -1.6517205867       -2.9698004408       -0.7874943372
 C         -2.6014171202       -1.9838442944       -1.0026295042
 H         -2.7471985897       -1.5321591511       -1.9700107468
 H         -1.0253689718       -3.2965198949       -1.6024399751
 H         -0.7725836369       -4.3012491334        0.6351156892
 H         -2.1929984236       -3.5480551790        2.5027721905
 H         -3.9057815880       -1.7779088484        2.1053461974
 H         -3.8307849211        1.2513359658        1.2535433513
 H         -3.1724500440        1.0910481633       -2.3054838833
 H         -0.9387459783        1.5772047310       -3.2657896675
 H          0.9464634100        2.1575718040       -1.7803611723
 C          0.9414167088        2.3469045638        0.9243812993
 H          0.6200336119        2.1039873522        1.9500604896
 C          1.3406699663        3.8134136031        0.9139063714
 C          0.8957546599        4.7874770911       -0.1311025705
 C          0.3203034188        4.8612113336        1.2494357072
 H          0.6082857931        5.6799373814        1.8911515223
 H         -0.7011240546        4.5352462897        1.3792082767
 H          1.6033317746        5.5401288938       -0.4433602546
 H          0.2610126696        4.4327678076       -0.9277253769
 H          2.3389823195        3.9638861292        1.3105252860
 O          1.0373494594       -0.1972217387        2.0389494129
