  62
        -98.94293527
 C         -2.0253899065       -0.4287001068        0.1114534915
 C         -2.7168840432        0.8110528262        0.0657641301
 C         -4.0826012670        0.7789174319       -0.4661703913
 C         -4.6005697564       -0.3855391529       -0.8963927712
 C         -5.9671164156       -0.5827297377       -1.4941216177
 C         -7.0844583776       -0.7546940428       -0.4561823267
 C         -7.4731340291        0.5179594798        0.2971430978
 H         -7.6805994596        1.3138976222       -0.4187796671
 H         -8.4039706866        0.3054056151        0.8266766740
 C         -6.4265129768        0.9968489124        1.3129278530
 H         -5.7295648819        0.1838693843        1.5292075022
 H         -6.9210570365        1.2523621413        2.2528378597
 C         -5.6303792589        2.2254553021        0.8724599582
 H         -6.3004253493        3.0832396160        0.7804208220
 H         -4.8958485993        2.4546566088        1.6489156710
 C         -4.8778111257        2.0493805664       -0.4530581024
 H         -5.5778894935        2.0684779345       -1.2882132361
 H         -4.1775522260        2.8811274709       -0.5635322882
 H         -6.7820676060       -1.5233180925        0.2587224122
 H         -7.9668618074       -1.1215675314       -0.9854579530
 H         -6.2037135190        0.2557950845       -2.1497617998
 H         -5.9142191428       -1.4919865412       -2.0966975822
 O         -3.9040138679       -1.5491340477       -0.8525811689
 C         -2.6146844847       -1.6101993498       -0.3401994539
 O         -2.1329283486       -2.7596313185       -0.3598048579
 H          1.3391679551        1.4402736492        0.3810645294
 C          1.3791248121        0.6731897556       -0.3773733320
 C          0.4397025645       -0.3475499034       -0.3899786333
 C          0.5200934521       -1.3183552593       -1.3835556344
 C          1.5114284944       -1.2558844457       -2.3453598694
 C          2.4566698779       -0.2447787768       -2.3200673087
 C          2.3917606063        0.7227956508       -1.3259496215
 N          3.3530252506        1.7516068745       -1.2449032266
 S          4.2922855501        1.7976210354        0.1426608055
 O          3.4609419959        2.0650614376        1.2868955131
 O          5.3366128890        2.7569996613       -0.1368372504
 C          4.9849831519        0.1562088942        0.2460574531
 C          4.2199837195       -0.8632747781        0.7778972762
 C          4.7285339087       -2.1525942495        0.7708157887
 C          5.9844437949       -2.3993886897        0.2379392004
 C          6.7419222529       -1.3637217002       -0.2879831708
 C          6.2365806997       -0.0736804926       -0.2913188420
 H          6.7901763485        0.7618461754       -0.6885081725
 H          7.7197183777       -1.5580070696       -0.6984486131
 H          6.3741930326       -3.4050969281        0.2337445760
 H          4.1370989701       -2.9574722134        1.1768197703
 H          3.2477746712       -0.6396199206        1.1858250471
 H          3.9529677212        1.8097174639       -2.0564540603
 H          3.2368294956       -0.2034487635       -3.0652102067
 H          1.5563545365       -2.0102877568       -3.1159559418
 H         -0.2044829466       -2.1176784943       -1.3956583589
 C         -0.6201144843       -0.3962359974        0.6850315236
 H         -0.5626278101        0.5488041582        1.2430432901
 C         -0.3235218117       -1.5323404047        1.6458103491
 C          0.7355161452       -1.3388016391        2.6880839014
 C         -0.7088524212       -1.3931706486        3.0861957503
 H         -1.0700923212       -2.2658442529        3.6090875930
 H         -1.1886570641       -0.4735013984        3.3889034465
 H          1.2330887567       -0.3800016495        2.7284650229
 H          1.3684182859       -2.1749465296        2.9433840000
 H         -0.4206392820       -2.5117949032        1.1959767811
 O         -2.2122223746        1.8982237497        0.4567533832
