  62
        -98.94416047
 C         -2.1933558296       -0.7708109295       -0.0504648992
 C         -2.9156885197       -0.1210157089        0.9778478504
 C         -3.7063344896        1.0442789310        0.5658345296
 C         -3.6724657894        1.4536752003       -0.7156901506
 C         -4.4013179893        2.6407541400       -1.2846869313
 C         -5.8571969292        2.3498487398       -1.6738571213
 C         -6.8228101594        2.1808026905       -0.5002276914
 H         -6.7286055694        3.0339506809        0.1724178482
 H         -7.8337390393        2.2009440504       -0.9120383115
 C         -6.6384153595        0.8773121109        0.2893105094
 H         -6.0563899995        0.1697902306       -0.3057389002
 H         -7.6135856896        0.4187773511        0.4679680495
 C         -5.9644239497        1.0497009916        1.6506127693
 H         -6.6033648297        1.6487904720        2.3032352189
 H         -5.8519474598        0.0618020919        2.1047018199
 C         -4.5778122997        1.7040393615        1.5916146292
 H         -4.6731095896        2.7695801314        1.3830758786
 H         -4.0977112498        1.5796537521        2.5656816993
 H         -5.8792698792        1.4523882195       -2.2962351909
 H         -6.2043079291        3.1865202895       -2.2844180018
 H         -4.3715863093        3.4660372204       -0.5725834218
 H         -3.8569633291        2.9369983895       -2.1839215614
 O         -2.9296473593        0.8268474097       -1.6662832602
 C         -2.1887477794       -0.3081468902       -1.3667141295
 O         -1.5780637293       -0.7929575607       -2.3368345491
 H          0.0558381504        0.1825369909        0.8158810106
 C          0.6656862704       -0.5694505794        0.3288803010
 C          0.0840745704       -1.7782861896       -0.0340817584
 C          0.8836385604       -2.7382604599       -0.6402268078
 C          2.2201696904       -2.4804848001       -0.8926391077
 C          2.7881117105       -1.2682866100       -0.5482442183
 C          2.0016774204       -0.3052129696        0.0708504711
 N          2.5669723704        0.9358579406        0.4158860605
 S          3.9766631903        0.9320614710        1.3295803506
 O          4.0517695702       -0.2334831686        2.1801032013
 O          3.9976274503        2.2159911913        1.9962051899
 C          5.2782036605        0.8874401403        0.1158383508
 C          6.2445675104       -0.0973221097        0.1795984515
 C          7.2556021705       -0.1059329803       -0.7688071984
 C          7.2821986907        0.8652090092       -1.7579766289
 C          6.3053800008        1.8488133392       -1.8063871796
 C          5.2928579707        1.8642644197       -0.8604553897
 H          4.5169795807        2.6117007898       -0.8615182302
 H          6.3289563909        2.6020769288       -2.5773762800
 H          8.0686391908        0.8557946587       -2.4960037688
 H          8.0160590305       -0.8693352603       -0.7328240079
 H          6.1787594503       -0.8353554193        0.9629872218
 H          1.9007241804        1.5894171308        0.8014962900
 H          3.8259942805       -1.0613069401       -0.7514906083
 H          2.8272503305       -3.2342042704       -1.3702228773
 H          0.4597183804       -3.6888290901       -0.9190379373
 C         -1.3735028597       -2.0010716693        0.2887810816
 H         -1.4625367498       -2.1198519787        1.3798044516
 C         -1.9620496097       -3.2249620196       -0.3823904479
 C         -1.8476714198       -4.5731904893        0.2620117229
 C         -3.1700880198       -3.8697627493        0.2261238223
 H         -3.9402676197       -4.2465905996       -0.4300414975
 H         -3.5493251599       -3.4434028887        1.1436470421
 H         -1.3321224099       -4.6330533488        1.2086864130
 H         -1.7120841298       -5.4374052897       -0.3706084366
 H         -1.9174933495       -3.1657255102       -1.4641037879
 O         -2.8926496498       -0.4909480282        2.1837042006
