  62
        -98.93798446
 C          0.8213882206        1.5358238254        0.1979477858
 C          1.8462571083        1.1496209872        1.0946014449
 C          2.9536680135        0.3413897772        0.5459903197
 C          2.8947130272       -0.0404581381       -0.7430399225
 C          3.9369583403       -0.7802889853       -1.5430688446
 C          4.0472041422       -2.2834052436       -1.2272189266
 C          3.8252905419       -2.6576826455        0.2365129897
 H          2.8930032359       -2.2124080344        0.5902135461
 H          3.7098695166       -3.7432939983        0.2950941363
 C          4.9633419235       -2.2573715255        1.1711091896
 H          5.8738373684       -2.7810216548        0.8702295889
 H          4.7026686302       -2.5953402552        2.1774941272
 C          5.2644449020       -0.7606242173        1.2291476693
 H          5.7432650884       -0.4265227008        0.3129030450
 H          5.9863507870       -0.6033317503        2.0358807413
 C          4.0572971664        0.1153538697        1.5506438670
 H          3.5666846415       -0.2688408836        2.4529607496
 H          4.4157035897        1.1153288930        1.8253270899
 H          3.3050458187       -2.8141158223       -1.8273769752
 H          5.0319115196       -2.6315660075       -1.5430061024
 H          3.6569216533       -0.6649308531       -2.5922703403
 H          4.8969916371       -0.2877125404       -1.4064309028
 O          1.8133390307        0.2316420490       -1.5269465009
 C          0.7591664592        1.0236990234       -1.0979692767
 O         -0.1351016496        1.1806398540       -1.9473298421
 O          1.8603825030        1.4907678050        2.3088927964
 C         -0.2188161540        2.5183524697        0.7003652058
 C         -1.6123792049        2.1273318390        0.2817707330
 C         -2.3959332339        2.8917106988       -0.5739155565
 C         -3.6814722186        2.4924720782       -0.8913854580
 C         -4.2107718833        1.3272697972       -0.3688461419
 C         -3.4336317937        0.5525468211        0.4842155561
 C         -2.1470912324        0.9560899277        0.8042777256
 H         -1.5545688912        0.3498335384        1.4749112441
 N         -3.9445038977       -0.6322651083        1.0396406499
 S         -2.9392425553       -1.9516305512        1.2033314574
 O         -3.8393780703       -3.0856276232        1.2472460171
 O         -2.0863970523       -1.7934901622        2.3554090108
 C         -1.9619195812       -2.0234487119       -0.2855324268
 C         -2.5954308076       -1.9169755297       -1.5075051680
 C         -1.8405248007       -2.0083472673       -2.6645135158
 C         -0.4744707471       -2.2240438949       -2.5820502367
 C          0.1437644291       -2.3413554970       -1.3485251377
 C         -0.6022877065       -2.2286489820       -0.1875082684
 H         -0.1532702525       -2.2892740555        0.7923043665
 H          1.2059555841       -2.5080446014       -1.2830389545
 H          0.1146066898       -2.2937173064       -3.4827105349
 H         -2.3177036317       -1.9091078517       -3.6260214612
 H         -3.6616436524       -1.7638253941       -1.5453808930
 H         -4.8602747251       -0.8975438444        0.7076908298
 H         -5.2148632000        1.0171115366       -0.6148793263
 H         -4.2780209229        3.0946039081       -1.5595803525
 H         -1.9930346289        3.7915227379       -1.0078666078
 H         -0.1663978608        2.4367610940        1.7993385474
 C          0.1130972006        3.9649434314        0.3546845771
 C          1.5324079228        4.4286580613        0.2278348696
 C          0.6552060033        4.3630731838       -0.9843943840
 H          0.3159463707        5.2907996518       -1.4212948866
 H          0.8313836322        3.5791336800       -1.7048599448
 H          1.7910531441        5.3981043858        0.6265986822
 H          2.3141152967        3.6909988630        0.3360851071
 H         -0.5747209665        4.6588949374        0.8281761073
