  62
        -98.93895782
 C         -1.8970015103       -0.5318742003       -0.5362470394
 C         -2.9950325905       -1.2736635997       -0.0419658590
 C         -4.3243715304       -0.6504409395       -0.1621379796
 C         -4.4302474200        0.5754908102       -0.7081857304
 C         -5.6419581598        1.4367950703       -0.9986355410
 C         -7.0010967599        1.1075085910       -0.3868933909
 C         -7.0800769000        1.2891498820        1.1286047190
 H         -7.0261004098        2.3574685722        1.3530128983
 H         -8.0538032101        0.9274267525        1.4659889591
 C         -5.9849204703        0.5941822823        1.9336900295
 H         -5.0126252801        1.0157723819        1.6702238893
 H         -6.1556292203        0.8160562530        2.9906547193
 C         -5.9259062206       -0.9244090078        1.7818256905
 H         -5.2145832708       -1.3014576275        2.5214830308
 H         -6.9032118507       -1.3547645774        2.0086784007
 C         -5.4734045506       -1.4352302088        0.4030199909
 H         -5.1127424709       -2.4606628488        0.5252630616
 H         -6.3022479506       -1.4629276791       -0.3001527892
 H         -7.3074589402        0.1042772409       -0.6680549603
 H         -7.7201672997        1.7958955909       -0.8393312314
 H         -5.3578390196        2.4548358504       -0.7134780917
 H         -5.7454385697        1.4418985496       -2.0894456410
 O         -3.3381069298        1.2570926496       -1.1640128607
 C         -2.0554671800        0.7371022194       -1.0893296403
 O         -1.1737789697        1.4909377389       -1.5423229007
 H          1.6793354000        0.4751683085       -1.0342951298
 C          1.4086673599        0.4765862293        0.0074621502
 C          0.3409736897       -0.2784969202        0.4644729406
 C          0.0062435396       -0.2154123192        1.8159995205
 C          0.7177434597        0.5890569312        2.6833801001
 C          1.7844101599        1.3422330206        2.2231381297
 C          2.1255448700        1.2895142197        0.8773223997
 N          3.1845980902        2.0687291891        0.3863949993
 S          4.3096323802        1.4503159581       -0.6806722202
 O          5.3698132404        2.4340980278       -0.6928831708
 O          3.6988288902        1.1522733974       -1.9501115801
 C          4.8896884697       -0.0465871815        0.0967611508
 C          5.9239754197        0.0433539588        1.0083275708
 C          6.3467915894       -1.1041663609        1.6589544816
 C          5.7253382391       -2.3154499309        1.3946541824
 C          4.6873512191       -2.3883340112        0.4787535223
 C          4.2620590195       -1.2445298515       -0.1787159385
 H          3.4616353595       -1.2650141718       -0.8992907485
 H          4.2056173889       -3.3306695212        0.2719842129
 H          6.0527437988       -3.2086602306        1.9029401130
 H          7.1564523493       -1.0511079506        2.3688181017
 H          6.3859750799        1.0029050988        1.1751814603
 H          3.6344348003        2.6461323294        1.0814613790
 H          2.3386820200        1.9778344509        2.8969978193
 H          0.4443461396        0.6302858819        3.7268810500
 H         -0.8312372006       -0.8001461088        2.1711865308
 C         -0.5061711505       -1.1365092306       -0.4411580389
 H         -0.6497984108       -2.1116518502        0.0459820817
 C          0.0815877596       -1.3642189516       -1.8166682687
 C          1.1390720693       -2.4081836820       -2.0106714880
 C         -0.2441189607       -2.6344713520       -2.5414640179
 H         -0.4027126806       -2.5923798227       -3.6086191180
 H         -0.8767587309       -3.3477532115       -2.0336391175
 H          1.9327567695       -2.2117302626       -2.7165021080
 H          1.4424191591       -2.9755845015       -1.1436076476
 H          0.1439939799       -0.4588267220       -2.4098926993
 O         -2.8732523209       -2.4168494794        0.4743978117
