  62
        -98.93896300
 C         -1.6852898402       -1.1762130603       -0.2250020603
 C         -3.0246197601       -1.3931080507        0.1772569497
 C         -3.9959116104       -0.3645041408       -0.2241092899
 C         -3.5722873007        0.6910076895       -0.9432485996
 C         -4.4190230410        1.8618442094       -1.3544342691
 C         -4.6198616212        2.8111566690       -0.1556758888
 C         -6.0647414911        2.9116979885        0.3338217413
 H         -6.0484188812        3.4231605281        1.2986025715
 H         -6.6321183613        3.5355538785       -0.3600266684
 C         -6.8122930108        1.5835497082        0.4866075010
 H         -7.7073838008        1.7889141578        1.0776647211
 H         -7.1573806408        1.2416783085       -0.4903201091
 C         -6.0304075705        0.4461823682        1.1565449105
 H         -6.7162933303       -0.0998139422        1.8074811704
 H         -5.2398235105        0.8452998782        1.7923712906
 C         -5.4284090403       -0.5808737913        0.1789991601
 H         -5.4385577300       -1.5649650815        0.6569214498
 H         -6.0542762503       -0.6445497512       -0.7154408098
 H         -3.9804871210        2.4703201589        0.6613571411
 H         -4.2798719914        3.8125617591       -0.4236226485
 H         -3.8949619612        2.3740146598       -2.1615608090
 H         -5.3772578609        1.5097043793       -1.7296198492
 O         -2.2778764608        0.8584825099       -1.3193375196
 C         -1.3019162105       -0.0628844099       -0.9703846100
 O         -0.1602419406        0.2224974905       -1.3765717699
 O         -3.3890366698       -2.3976709511        0.8459289994
 C         -0.6256012999       -2.1899297301        0.1686886693
 C          0.4360821300       -1.5156955302        1.0014656994
 C          0.0492784299       -0.8684774006        2.1736693197
 C          0.9784000098       -0.2302955507        2.9708852998
 C          2.3155078798       -0.2159676202        2.6114515297
 C          2.7128522199       -0.8603151697        1.4473382895
 C          1.7774175800       -1.5137732497        0.6544284693
 H          2.1175339800       -1.9975591893       -0.2452164008
 N          4.0687627598       -0.8839936293        1.0662220494
 S          4.5125206596       -0.2582329987       -0.4236082904
 O          3.8650354797       -0.9918166585       -1.4783242806
 O          5.9594256396       -0.2926972283       -0.4160792405
 C          3.9625216992        1.4380102312       -0.3719338398
 C          4.8729537790        2.4091263013        0.0004282904
 C          4.4472147986        3.7218833011        0.1158523909
 C          3.1197578585        4.0389170709       -0.1315997289
 C          2.2195851188        3.0514933508       -0.4997383692
 C          2.6380011191        1.7346884009       -0.6220954096
 H          1.9471035093        0.9580037809       -0.9109210698
 H          1.1850639487        3.2868579906       -0.6946263090
 H          2.7842614883        5.0599898608       -0.0388562985
 H          5.1472978185        4.4911862212        0.3995742111
 H          5.8951987590        2.1163768515        0.1786403703
 H          4.6919423498       -0.5173416694        1.7728331995
 H          3.0448024697        0.2862548997        3.2289818599
 H          0.6614519297        0.2648972789        3.8762283800
 H         -0.9967097101       -0.8757690710        2.4490776197
 H         -1.1450320397       -2.9226492705        0.8039157191
 C         -0.0848750898       -2.9051143896       -1.0506317410
 C          0.5014949905       -4.2772752195       -0.9128976415
 C         -0.8248933295       -4.0928103596       -1.5853951213
 H         -0.8849898296       -4.2237253293       -2.6555026314
 H         -1.7147790094       -4.4023133400       -1.0567700414
 H          1.3565449106       -4.5336172191       -1.5203203716
 H          0.5134771807       -4.7182753998        0.0724482784
 H          0.3637379400       -2.2314943893       -1.7728765308
