  62
        -98.93812810
 C          2.5431898213        1.1757421039        0.2218088445
 C          2.7133760446        0.4226292299       -0.9629175875
 C          3.6078037153       -0.7463717204       -0.8690083992
 C          4.1957310246       -1.0280306431        0.3066870503
 C          5.0931119570       -2.1917936514        0.6260761304
 C          4.2810624413       -3.3613142191        1.2080855023
 C          3.6888534049       -4.3146082092        0.1706005180
 H          4.4940095891       -4.9005318842       -0.2774378623
 H          3.0357035118       -5.0095799114        0.7036194864
 C          2.8878252896       -3.6479151733       -0.9511119496
 H          2.2482867819       -2.8671779516       -0.5344719201
 H          2.2309645092       -4.4032948047       -1.3867288625
 C          3.7743088832       -3.0611431094       -2.0598795626
 H          4.7907064306       -3.4348128155       -1.9374082609
 H          3.4260765732       -3.4227177157       -3.0294669586
 C          3.7936381251       -1.5275026759       -2.1412039532
 H          4.7283272199       -1.2072426241       -2.6132508660
 H          2.9822964366       -1.1872178551       -2.7924902318
 H          3.4802607829       -2.9403176214        1.8221260632
 H          4.9271256010       -3.9414165257        1.8701423967
 H          5.6522951833       -2.4997052635       -0.2522807718
 H          5.7949860076       -1.8437782685        1.3868218745
 O          3.9926142704       -0.2809568810        1.4282898911
 C          3.1632901399        0.8254454188        1.4193896443
 O          3.0547190985        1.4001466731        2.5228792617
 H          0.2642594198        0.2625844308        1.0227481558
 C         -0.3235442311        0.8664386907        0.3404618374
 C          0.2387490220        2.0185325662       -0.1957629207
 C         -0.5346794735        2.7924310719       -1.0509239325
 C         -1.8249017234        2.4070653781       -1.3723376783
 C         -2.3718218590        1.2494610545       -0.8510345639
 C         -1.6122636200        0.4739742160        0.0152704816
 N         -2.1620509343       -0.7085614255        0.5483637761
 S         -3.5933605559       -0.5562031261        1.4197226484
 O         -3.6927914871        0.7437369461        2.0431362778
 O         -3.6204488814       -1.6986566112        2.3070995451
 C         -4.8684864088       -0.7428707189        0.1917510082
 C         -5.7965828001        0.2630293554        0.0063067145
 C         -6.7859226946        0.0932516366       -0.9498213576
 C         -6.8290561387       -1.0727198756       -1.6988503900
 C         -5.8906953966       -2.0743810705       -1.4983891318
 C         -4.8999928220       -1.9118647814       -0.5432184510
 H         -4.1549684894       -2.6664125623       -0.3531580334
 H         -5.9276718154       -2.9797258773       -2.0826022938
 H         -7.5988932686       -1.2020596625       -2.4431053129
 H         -7.5165350309        0.8703827262       -1.1067811105
 H         -5.7191332160        1.1541912592        0.6083808708
 H         -1.4971913769       -1.2534785539        1.0788083551
 H         -3.3722314726        0.9409965817       -1.1069511060
 H         -2.4116442377        3.0161238162       -2.0427985408
 H         -0.1257638832        3.6976146435       -1.4686753850
 C          1.6416366067        2.3957427256        0.2172730568
 H          1.6010969485        2.7476786553        1.2594375545
 C          2.2502152936        3.4862178029       -0.6407823329
 C          2.0256872122        4.9291770158       -0.3055956563
 C          3.3689523434        4.3065751521       -0.0750490578
 H          4.1863744477        4.5824670372       -0.7240384911
 H          3.6707017896        4.0970532482        0.9413219097
 H          1.4180668560        5.1539400858        0.5581378072
 H          1.9240488910        5.6371115914       -1.1142876219
 H          2.3150057823        3.2038578607       -1.6852077108
 O          2.1414058458        0.7051014546       -2.0475125642
