  62
        -98.93814077
 C         -2.0920716401       -0.9519907388       -0.0473136314
 C         -2.5377908746        0.3733338724       -0.2534827681
 C         -3.8692109726        0.7097005123        0.2856565904
 C         -4.5812614899       -0.2336212692        0.9300189648
 C         -5.9311934641       -0.1727074203        1.6143822458
 C         -6.8699065898        1.0095738749        1.3896022293
 C         -7.4426721296        1.1109212803       -0.0237112987
 H         -8.1400811331        0.2832572863       -0.1757890449
 H         -8.0102572270        2.0412116400       -0.0965961130
 C         -6.4186390707        1.0633696358       -1.1548979359
 H         -6.9622155641        1.1357134878       -2.1008838737
 H         -5.9103455899        0.0970259406       -1.1495422047
 C         -5.3710690023        2.1747622770       -1.1354103958
 H         -5.8667332249        3.1470487009       -1.1037088110
 H         -4.8111434546        2.1159687963       -2.0726921270
 C         -4.3529046568        2.1055047913        0.0159579899
 H         -3.4708915475        2.6826011360       -0.2776196832
 H         -4.7493932290        2.5570794189        0.9222923395
 H         -6.3808744928        1.9376078115        1.6707583937
 H         -7.7099381533        0.8744580725        2.0764304518
 H         -5.7221462561       -0.2487739198        2.6872424030
 H         -6.4475704256       -1.0970343515        1.3363039490
 O         -4.1014245867       -1.4996953913        1.1108248856
 C         -2.8634447547       -1.8905006954        0.6351769023
 O         -2.5670919821       -3.0770225031        0.8812433779
 O         -1.8584585253        1.2451953933       -0.8560783330
 C         -0.7326222890       -1.3920462016       -0.5617599395
 C          0.3425027834       -0.5426481927        0.0710290402
 C          0.4305836604       -0.5092856659        1.4606811275
 C          1.3863932350        0.2629503243        2.0915125353
 C          2.2793515279        1.0182900135        1.3510615164
 C          2.2080721683        0.9825789679       -0.0343732583
 C          1.2515885108        0.1970944719       -0.6672218407
 H          1.2081559299        0.1870426685       -1.7447198872
 N          3.1174634290        1.7362667098       -0.7922488712
 S          4.7255960539        1.7439680229       -0.3390042705
 O          4.9236261190        2.6597464501        0.7567048792
 O          5.4569746943        2.0414686585       -1.5503720569
 C          5.0599008955        0.0754843070        0.1990796395
 C          4.8981520147       -0.9468537305       -0.7152270649
 C          5.1193151236       -2.2519723498       -0.3075698155
 C          5.4950098308       -2.5121099491        1.0016682384
 C          5.6578911655       -1.4747246799        1.9061815018
 C          5.4368071719       -0.1670643170        1.5039587135
 H          5.5506384862        0.6682696176        2.1755434283
 H          5.9520158455       -1.6797286117        2.9229430731
 H          5.6624052509       -3.5298174385        1.3173888198
 H          4.9951679975       -3.0608501371       -1.0095653118
 H          4.6118379431       -0.7111784041       -1.7274764397
 H          3.0058564554        1.6442715049       -1.7906572931
 H          3.0176603616        1.6434529657        1.8261616112
 H          1.4358032997        0.2829892017        3.1696679528
 H         -0.2713714024       -1.0946659786        2.0393126965
 H         -0.5987663076       -2.4252761595       -0.2110852229
 C         -0.7132404971       -1.3855512488       -2.0756714667
 C          0.2513244462       -2.2615234033       -2.8161805682
 C         -1.2104492136       -2.5919331487       -2.8112447197
 H         -1.7774071545       -2.4452149290       -3.7184238605
 H         -1.5462066269       -3.4307291410       -2.2189291156
 H          0.6877421607       -1.8925175099       -3.7322787317
 H          0.9111990430       -2.8826729169       -2.2299235293
 H         -0.9520675372       -0.4143882386       -2.4939373658
