  62
        -98.94509489
 C         -1.3554413167       -1.4544073469        0.4099595051
 C         -1.8493953150       -0.4386861023        1.2666239267
 C         -2.8241904714        0.4878981371        0.6824720261
 C         -3.1634356255        0.3658485279       -0.6132099345
 C         -4.1364854802        1.2369467178       -1.3598889121
 C         -3.5206578683        2.5453077842       -1.8750240688
 C         -3.2623847938        3.6083361361       -0.8063097077
 H         -4.1648586328        3.7531631827       -0.2107416535
 H         -3.0620382137        4.5448785065       -1.3306810877
 C         -2.0746077624        3.3017313552        0.1165352420
 H         -1.4666170933        4.2025928934        0.2352325390
 H         -1.4321258855        2.5549101179       -0.3583095208
 C         -2.4657935270        2.8326262342        1.5184856645
 H         -2.9818582130        3.6420617260        2.0403552701
 H         -1.5515053305        2.6070047846        2.0729811911
 C         -3.3608918412        1.5872861056        1.5495660423
 H         -4.3740585011        1.8472115658        1.2431781062
 H         -3.3899132182        1.2142340731        2.5766131361
 H         -4.2091994509        2.9620626255       -2.6141816489
 H         -2.5820628924        2.3135913334       -2.3855350989
 H         -4.4791447858        0.6555218399       -2.2186394064
 H         -4.9952094210        1.4607853922       -0.7257758348
 O         -2.6520999258       -0.6060397745       -1.4118862154
 C         -1.7174739203       -1.5182546156       -0.9372606921
 O         -1.3107250419       -2.3144497740       -1.8042250713
 H          0.7452184393       -0.2886207498       -0.2514948861
 C          1.3299823029       -1.1701589249       -0.4576640954
 C          0.9207337001       -2.3882793508        0.0683031162
 C          1.6645935065       -3.5204117016       -0.2366925994
 C          2.7750758414       -3.4234124870       -1.0588889851
 C          3.1685882175       -2.2095457251       -1.5909376928
 C          2.4268694005       -1.0700835921       -1.2949354709
 N          2.7633146852        0.1727874467       -1.8374081015
 S          2.1573815690        1.6139058161       -1.2765106485
 O          0.7332636079        1.6946281021       -1.4886439423
 O          2.9558821470        2.6116309441       -1.9567450503
 C          2.5411724515        1.6413504000        0.4651343339
 C          3.8728952711        1.6139306141        0.8314651146
 C          4.1988278977        1.6061180798        2.1776110795
 C          3.1925503203        1.6197061314        3.1321359031
 C          1.8608888038        1.6538643987        2.7495146373
 C          1.5309498814        1.6676629724        1.4037673418
 H          0.5029705728        1.6881517261        1.0762143690
 H          1.0715651934        1.6542989992        3.4847100686
 H          3.4452767929        1.6050550809        4.1805498237
 H          5.2336271119        1.5845490567        2.4791439428
 H          4.6272309840        1.6112984287        0.0618314587
 H          3.6434926704        0.2432912906       -2.3212200244
 H          4.0261198894       -2.1426799365       -2.2423306271
 H          3.3414945715       -4.3118109918       -1.2939454932
 H          1.3680360696       -4.4817266287        0.1491891593
 C         -0.2928297433       -2.3843136875        0.9672549523
 H          0.0057993824       -1.9044808923        1.9159720068
 C         -0.7857650025       -3.7780744417        1.3308502094
 C         -2.2475682830       -4.0828995721        1.4597929595
 C         -1.4564108884       -4.6725010340        0.3329609457
 H         -1.2355807840       -5.7296403859        0.3606540184
 H         -1.6081577082       -4.2791032694       -0.6596759803
 H         -2.9477284300       -3.2925628893        1.2292551887
 H         -2.5674069520       -4.7297403754        2.2631866609
 H         -0.1381757700       -4.2633145492        2.0545210698
 O         -1.4842929064       -0.3070749026        2.4658737825
