  62
        -98.93989651
 C          2.1015546409        0.4050377695        0.3718745606
 C          3.1294204411        0.6083957005       -0.5817392490
 C          4.0246985812       -0.5346151692       -0.8095015198
 C          3.8163716211       -1.6952126699       -0.1639583810
 C          4.6306827513       -2.9520261597       -0.3106970519
 C          5.8973470710       -2.9786722604        0.5561881484
 C          7.0254855711       -2.0575052199        0.0897187295
 H          7.9188734410       -2.3369312904        0.6516692995
 H          7.2322965914       -2.2437675489       -0.9645493006
 C          6.7536763709       -0.5624121301        0.3071749508
 H          5.9388019008       -0.4409263808        1.0246635108
 H          7.6371213008       -0.0914781005        0.7441186515
 C          6.4105691612        0.2109143511       -0.9660017985
 H          7.2706269714        0.2086669018       -1.6391717383
 H          6.1998251611        1.2472505108       -0.6907020676
 C          5.1941638514       -0.3335815083       -1.7260729193
 H          4.9026481716        0.4016870924       -2.4797193387
 H          5.4495287016       -1.2668965978       -2.2269379702
 H          5.6219662808       -2.7273664314        1.5831649185
 H          6.2709594211       -4.0052853204        0.5543716575
 H          3.9848019312       -3.7772528900       -0.0029718629
 H          4.9009220715       -3.0939116787       -1.3574641020
 O          2.7937313109       -1.8650497708        0.7173006386
 C          1.9369335508       -0.8216934111        1.0226091794
 O          1.0810180906       -1.1055140720        1.8868115389
 H         -1.4509895593        0.6715485687        0.9423495399
 C         -1.2490316391        1.1411508796       -0.0092649096
 C          0.0247913909        1.6178642200       -0.2875965988
 C          0.2679383112        2.1977503812       -1.5284381082
 C         -0.7451005986        2.2915158820       -2.4647950284
 C         -2.0127215986        1.8131792616       -2.1857119491
 C         -2.2672519889        1.2342114105       -0.9474826697
 N         -3.5612066789        0.7854273501       -0.6289349305
 S         -3.7568657891       -0.5643838309        0.3643927382
 O         -3.5266903994       -0.1728556821        1.7320236986
 O         -2.9750852489       -1.6728420503       -0.1378543427
 C         -5.4975568790       -0.8670422908        0.1200563375
 C         -5.9087340887       -1.9054780300       -0.6932554336
 C         -7.2663968687       -2.1044542199       -0.8916552241
 C         -8.1840537689       -1.2641607106       -0.2797348436
 C         -7.7560805191       -0.2259966513        0.5347992675
 C         -6.4007634192       -0.0229391014        0.7389246880
 H         -6.0212014594        0.7636574680        1.3698094089
 H         -8.4724601393        0.4239144082        1.0107839579
 H         -9.2395779788       -1.4209330005       -0.4362860840
 H         -7.6018102884       -2.9126778494       -1.5213713650
 H         -5.1587231786       -2.5361390595       -1.1431424740
 H         -4.1586826587        0.7225316408       -1.4426824007
 H         -2.8015521684        1.8878701123       -2.9188851793
 H         -0.5437357983        2.7386244529       -3.4265974479
 H          1.2616829813        2.5466573115       -1.7603804276
 C          1.1067618207        1.4891004991        0.7585625114
 H          0.6285419405        1.1322981182        1.6815324309
 C          1.7677536805        2.8228443689        1.0478576828
 C          1.0228387803        3.8349707880        1.8627341935
 C          2.2105539402        3.1302588576        2.4449828732
 H          3.1252198901        3.6865941575        2.5848757539
 H          2.0373566000        2.3774957768        3.2010078324
 H          1.1199575602        4.8779361483        1.6036586445
 H          0.0432301402        3.5590876276        2.2243480730
 H          2.3908772407        3.1821160097        0.2401919033
 O          3.3157238212        1.6776594511       -1.2187542779
