  62
        -98.94354382
 C         -1.8274647670       -1.1356865912        0.4670697721
 C         -2.7624030336       -1.0253628947       -0.5912720411
 C         -4.0497053010       -0.4023812284       -0.2450532629
 C         -4.2582646779        0.0389290310        1.0081670458
 C         -5.4996860337        0.7394760060        1.4773110847
 C         -5.3721697619        2.2615091481        1.3231556765
 C         -4.8837405211        2.7043885288       -0.0562053338
 H         -4.8623649587        3.7964355404       -0.0583186851
 H         -3.8549924688        2.3642525330       -0.1977051948
 C         -5.7462275121        2.2076313269       -1.2248976357
 H         -5.9080161445        3.0367778353       -1.9169265363
 H         -6.7250522228        1.8973692741       -0.8572419710
 C         -5.1233172971        1.0678884475       -2.0331516400
 H         -4.1051367029        1.3387608310       -2.3242103108
 H         -5.7043337349        0.9459933168       -2.9511471548
 C         -5.0781823413       -0.2974926953       -1.3358040615
 H         -6.0702000132       -0.5497904631       -0.9558194099
 H         -4.7965198376       -1.0424254481       -2.0856431910
 H         -6.3449857629        2.7120634285        1.5283346225
 H         -4.6640766996        2.6277106097        2.0703076892
 H         -6.3525507535        0.3765726905        0.9070655070
 H         -5.6514138711        0.5017676610        2.5316010629
 O         -3.3262023409       -0.0595361708        1.9906164598
 C         -2.0904399609       -0.6295443778        1.7419213763
 O         -1.3191623162       -0.6294026650        2.7240059507
 H          0.7874520876        0.3739648701        1.2352074678
 C          0.9635674854        0.2900961604        0.1699955550
 C          0.3902896872       -0.7681318540       -0.5246369822
 C          0.6095764627       -0.8635418797       -1.8924272337
 C          1.3813698262        0.0834089960       -2.5444684191
 C          1.9596025689        1.1296081211       -1.8485884965
 C          1.7458365597        1.2312854197       -0.4799243454
 N          2.3857318381        2.2632549661        0.2434414939
 S          4.0636840244        2.1634888616        0.2091538360
 O          4.5228596278        2.8243568135        1.4101552607
 O          4.5431136091        2.7070603406       -1.0360250426
 C          4.3875718411        0.4103290429        0.2769740287
 C          4.7170129744       -0.2702671093       -0.8775384826
 C          4.8509102868       -1.6483595671       -0.8265847085
 C          4.6495566386       -2.3184556657        0.3699482004
 C          4.3261479574       -1.6195937775        1.5230234010
 C          4.1879089560       -0.2419973910        1.4773783599
 H          3.9369395902        0.3341732137        2.3540334825
 H          4.1714071255       -2.1425616354        2.4533955601
 H          4.7456460605       -3.3923662515        0.4058520995
 H          5.1030856831       -2.1952724477       -1.7205101537
 H          4.8622528206        0.2887479314       -1.7869905877
 H          2.0718227010        2.3192732937        1.2024877811
 H          2.5804375127        1.8637592326       -2.3364783062
 H          1.5388539736        0.0021599049       -3.6090549737
 H          0.1601876332       -1.6699508311       -2.4473182484
 C         -0.4519982491       -1.7490340975        0.2536977956
 H         -0.0110141222       -1.8387557128        1.2557684507
 C         -0.5080216011       -3.1261126033       -0.3718962822
 C          0.7321486645       -3.9675293518       -0.3625263154
 C         -0.4284104902       -4.3325097227        0.5121350762
 H         -1.0183002699       -5.1990127024        0.2532944519
 H         -0.3397663556       -4.1689833939        1.5764222705
 H          1.6099962159       -3.5479865321        0.1059595008
 H          0.9426445600       -4.5860812231       -1.2211012984
 H         -1.1585760125       -3.1842369254       -1.2345737288
 O         -2.5503556667       -1.4263229983       -1.7641929206
