  62
        -98.93776822
 C         -1.5048316377       -1.7854896052        0.3450313988
 C         -1.4514804663       -0.6730857905       -0.5261692343
 C         -2.3620564944        0.4467756343       -0.2166837548
 C         -3.1547496819        0.3668285711        0.8670905213
 C         -4.1526620215        1.3742756324        1.3799946400
 C         -3.6969537932        2.8420441650        1.3987725030
 C         -4.4094431684        3.7131150303        0.3624967229
 H         -5.4602635298        3.4183296550        0.3254476787
 H         -4.3755966832        4.7521766795        0.6977263607
 C         -3.8195522484        3.6619874060       -1.0458902985
 H         -4.4988693511        4.2048259699       -1.7072342475
 H         -2.8642521657        4.1905878650       -1.0557925960
 C         -3.5993832431        2.2579793879       -1.6126624290
 H         -3.5739607296        2.3379623530       -2.7012941192
 H         -4.4379844600        1.6093560211       -1.3624202323
 C         -2.2801806266        1.6147695853       -1.1600444471
 H         -1.6271789664        2.3723044830       -0.7185155839
 H         -1.7406650400        1.2258011644       -2.0289124949
 H         -2.6177314654        2.8967864692        1.2634615042
 H         -3.9189561584        3.2465828117        2.3877550766
 H         -5.0729060194        1.2790217434        0.7984845730
 H         -4.3916421272        1.0463615535        2.3943427190
 O         -3.1642955532       -0.7263424866        1.6849055880
 C         -2.3507462896       -1.8201499734        1.4508939325
 O         -2.4612499667       -2.7373427999        2.2906160052
 O         -0.6784300116       -0.6108267359       -1.5163328070
 C         -0.6066330925       -2.9818695976        0.0948363250
 C          0.8355113832       -2.5502561819       -0.0197954042
 C          1.7207345367       -3.1154823456       -0.9287624132
 C          3.0335678889       -2.6808337237       -0.9944237220
 C          3.4922947311       -1.6755840659       -0.1635089844
 C          2.6148824903       -1.1029191826        0.7493666691
 C          1.3059552330       -1.5529702707        0.8251997288
 H          0.6288502198       -1.1085731873        1.5450002593
 N          3.0615641079       -0.0766181770        1.6051612805
 S          3.7709938970        1.2884597665        0.9466188011
 O          5.0068037536        0.9115537455        0.3083596298
 O          3.8785092385        2.2196534591        2.0470296014
 C          2.6294935224        1.9220876147       -0.2683215942
 C          2.5730471706        1.3380624813       -1.5179012710
 C          1.6707058736        1.8316482178       -2.4460546691
 C          0.8533880718        2.9005440695       -2.1160115496
 C          0.9233178315        3.4769597628       -0.8568494764
 C          1.8131264648        2.9795116418        0.0807228163
 H          1.9028143070        3.3997884281        1.0698915555
 H          0.2904015527        4.3131351391       -0.6032253962
 H          0.1556824278        3.2846682720       -2.8434817803
 H          1.6064721975        1.3768503679       -3.4209731042
 H          3.2307707005        0.5164401803       -1.7480580304
 H          2.3697420089        0.2021505755        2.2860800644
 H          4.5075128721       -1.3163367087       -0.2139803424
 H          3.7097151148       -3.1297721368       -1.7062102791
 H          1.3818276538       -3.8951824068       -1.5909136244
 H         -0.7032544624       -3.6284176124        0.9799212893
 C         -1.0963579519       -3.7453322494       -1.1199430897
 C         -0.9467778382       -5.2344266242       -1.1953290257
 C         -2.2993557523       -4.6270419868       -0.9791275162
 H         -3.0159373031       -4.6568166312       -1.7861647227
 H         -2.7451655367       -4.7004019432        0.0024840917
 H         -0.7376759367       -5.6846230740       -2.1541572817
 H         -0.4788138563       -5.7345360540       -0.3607590582
 H         -1.0002039073       -3.1720814963       -2.0349826197
