  62
        -98.94302025
 C         -2.3368650630       -0.8965176452        0.4498688075
 C         -2.5236731220        0.1365119373       -0.5004542926
 C         -3.5074486887        1.1670491949       -0.1404665669
 C         -4.1373224113        1.1165455389        1.0464469339
 C         -5.1387266273        2.1120113581        1.5656904711
 C         -6.5728071519        1.8693772924        1.0754184160
 C         -6.8242504605        2.2098197170       -0.3940336925
 H         -7.9055920201        2.2009158660       -0.5444863974
 H         -6.4761864015        3.2233295973       -0.5959128501
 C         -6.1800090229        1.2342903884       -1.3889121986
 H         -6.9058302840        0.9686136154       -2.1608196590
 H         -5.9113213357        0.3103623836       -0.8715847805
 C         -4.9419950109        1.7802778489       -2.1003340012
 H         -4.5468780068        0.9959291017       -2.7510861300
 H         -5.2241281841        2.6280510053       -2.7287448782
 C         -3.8166232638        2.2248627100       -1.1570388578
 H         -2.9151085202        2.3897544318       -1.7522826466
 H         -4.0857168563        3.1590127561       -0.6646688774
 H         -7.2347104219        2.4864075750        1.6874193856
 H         -6.8318081026        0.8236615475        1.2566144772
 H         -5.1277150276        2.0232212492        2.6541287609
 H         -4.8265306747        3.1213513105        1.2961578863
 O         -3.9085341705        0.1259819090        1.9478774079
 C         -3.0321562404       -0.9059004741        1.6648112772
 O         -2.9544136352       -1.7661990461        2.5643691074
 H          0.1440263795       -0.2521938324       -1.0548025050
 C          0.6857504428       -0.7345236837       -0.2545048763
 C          0.0415407214       -1.6868295860        0.5221238598
 C          0.7490572547       -2.2915375278        1.5544480701
 C          2.0661278687       -1.9463853761        1.8015608040
 C          2.7021984230       -0.9904673914        1.0298863373
 C          2.0039496731       -0.3798065069       -0.0036304395
 N          2.6260307368        0.6142525584       -0.7768345988
 S          4.1617295610        0.3291755689       -1.3851192719
 O          4.2836501558        1.2002951503       -2.5335245668
 O          4.3886378218       -1.0781677317       -1.6199673406
 C          5.2454787831        0.9149462358       -0.0989044959
 C          6.2330724576        0.0886671641        0.4004360247
 C          7.0720719541        0.5709454054        1.3931261234
 C          6.9101932273        1.8643097971        1.8653933782
 C          5.9152588824        2.6826440439        1.3512298355
 C          5.0741878555        2.2069727718        0.3581058600
 H          4.2914579601        2.8112527713       -0.0694034711
 H          5.7922532177        3.6879684036        1.7208675788
 H          7.5630749169        2.2372320381        2.6386881450
 H          7.8464565297       -0.0632679093        1.7937596057
 H          6.3180897758       -0.9117630656        0.0068147443
 H          2.0218426231        1.0115725081       -1.4817830771
 H          3.7272010454       -0.7167554095        1.2195993045
 H          2.6032552375       -2.4242930176        2.6065960166
 H          0.2550226322       -3.0283111038        2.1711768026
 C         -1.3920571930       -2.0705760250        0.2401534341
 H         -1.6875875219       -2.8212196134        0.9852510767
 C         -1.5214118932       -2.6920890072       -1.1378050740
 C         -1.0807322134       -4.1092129851       -1.3393138005
 C         -2.5397237623       -3.7665246652       -1.3648670226
 H         -3.0613982856       -3.7906754371       -2.3099034169
 H         -3.1481589903       -4.0640073025       -0.5229104566
 H         -0.7004956907       -4.6416292225       -0.4806000403
 H         -0.5958044985       -4.3705256044       -2.2674689781
 H         -1.3507345061       -1.9922391722       -1.9451886544
 O         -1.9125797624        0.2242028716       -1.6002104348
