  62
        -98.94161416
 C         -2.4330768803       -0.7015685285       -0.3881480907
 C         -3.0923202198        0.1407411517        0.5447397495
 C         -3.2044402393        1.5593535018        0.1896507197
 C         -2.6798218492        1.9841260817       -0.9736508803
 C         -2.6686329587        3.4107635217       -1.4403212601
 C         -1.3909335483        4.1332883111       -0.9922718802
 C         -1.0706168682        3.9638691108        0.4930917197
 H         -0.8100343286        2.9190292407        0.6824820995
 H         -0.1743660379        4.5535017804        0.6987005597
 C         -2.1972667178        4.3979624412        1.4416116099
 H         -1.7623093075        4.9848089609        2.2532628799
 H         -2.8972009476        5.0452074315        0.9118165401
 C         -2.9648377283        3.2439551614        2.0889565399
 H         -3.5716672580        3.6520620016        2.9017170000
 H         -2.2574653985        2.5364513411        2.5293465997
 C         -3.9060566787        2.4664345119        1.1609128799
 H         -4.5248092889        1.8144782521        1.7843948299
 H         -4.5612312885        3.1621874423        0.6327775701
 H         -1.4951250179        5.1946375812       -1.2266515801
 H         -0.5495389686        3.7363437408       -1.5658469604
 H         -3.5452727784        3.9218040421       -1.0463591599
 H         -2.7143084888        3.4155437919       -2.5307966701
 O         -2.0641841497        1.1522062215       -1.8494742305
 C         -1.9067178203       -0.2021647286       -1.5802438607
 O         -1.3116875207       -0.8165138087       -2.4877644808
 O         -3.5787037999       -0.2848099683        1.6280470595
 C         -2.2899315909       -2.1576475986        0.0198177091
 C         -1.0060130809       -2.3604229193        0.7906124489
 C         -1.0139732910       -2.9801828794        2.0347691689
 C          0.1601305890       -3.1419571200        2.7482615387
 C          1.3580520992       -2.6719798605        2.2427899986
 C          1.3772373393       -2.0555788703        0.9959670786
 C          0.2026689792       -1.9191401997        0.2711954288
 H          0.2363797293       -1.4401666696       -0.6959772311
 N          2.5788830694       -1.5762579808        0.4509658885
 S          2.5270916799       -0.1428962307       -0.4458633713
 O          1.6096269904        0.7916088197        0.1665768190
 O          2.3037135796       -0.4685814304       -1.8311342213
 C          4.2118119002        0.4089004986       -0.2402179715
 C          4.5041678107        1.3996014783        0.6773117786
 C          5.8245768609        1.7870403377        0.8473004985
 C          6.8244580806        1.1774198474        0.1047647483
 C          6.5155740100        0.1838672776       -0.8127597618
 C          5.1977352498       -0.2061231218       -0.9893912117
 H          4.9065997594       -0.9653256816       -1.6965309017
 H          7.2947856397       -0.2865740926       -1.3903632120
 H          7.8507399207        1.4800852869        0.2399109082
 H          6.0670978814        2.5613094175        1.5571431585
 H          3.6925011010        1.8476297286        1.2279194488
 H          3.3386726995       -1.5701027012        1.1182328884
 H          2.2726651892       -2.7786393210        2.8059804384
 H          0.1398741290       -3.6224380701        3.7145383686
 H         -1.9523507111       -3.3163802591        2.4500524189
 H         -3.1235438209       -2.3483878283        0.7107736392
 C         -2.3782541815       -3.1510951384       -1.1207368810
 C         -2.8097024721       -4.5561757083       -0.8290020711
 C         -3.7220037918       -3.6313808478       -1.5762925408
 H         -3.8768852620       -3.7930502476       -2.6322566208
 H         -4.5898241415       -3.2445998075       -1.0621046107
 H         -2.3362432725       -5.3602706084       -1.3707819313
 H         -3.0637631921       -4.8012966483        0.1909532889
 H         -1.6196123216       -3.0022996187       -1.8781220011
