  62
        -98.94131005
 C         -0.5301127301       -1.5334736398        0.1156530197
 C         -1.2775745698       -0.7487661602        1.0202214802
 C         -2.3742907802        0.0607306398        0.4543712010
 C         -2.5594613008        0.0557316602       -0.8789192589
 C         -3.6415052513        0.7337234002       -1.6769227882
 C         -4.9921571012        0.0092222999       -1.5681717377
 C         -5.3924597804       -0.3843904505       -0.1490264477
 H         -6.3237384003       -0.9535121007       -0.2129578274
 H         -4.6344048401       -1.0514325205        0.2652593018
 C         -5.6227195601        0.7812522592        0.8106456928
 H         -6.3877197504        1.4413045292        0.3960152133
 H         -6.0173784196        0.3601680288        1.7389157928
 C         -4.3895770701        1.6197368693        1.1594240324
 H         -4.6397786098        2.2110875190        2.0448729527
 H         -4.1579464106        2.3285738495        0.3699380325
 C         -3.1486732298        0.8068846594        1.5130981716
 H         -2.4178905097        1.4672208394        1.9948400014
 H         -3.4108886093        0.0660667691        2.2774516615
 H         -5.7621019015        0.6500168799       -2.0014131572
 H         -4.9382320913       -0.9043813599       -2.1653157080
 H         -3.7424909614        1.7709403301       -1.3769427679
 H         -3.3201891218        0.7135832505       -2.7201778384
 O         -1.7601306311       -0.6600374795       -1.7212420095
 C         -0.7470836808       -1.4776556294       -1.2603980902
 O         -0.1251401511       -2.0847766491       -2.1525155007
 H          1.5398536698        0.0186528105        0.4420806191
 C          2.2210095997       -0.6953799293        0.0011429686
 C          1.8911620500       -2.0448326993        0.0217466184
 C          2.7840110199       -2.9560448190       -0.5259926423
 C          3.9669646395       -2.5172642787       -1.0956309828
 C          4.2861370193       -1.1726467586       -1.1244048626
 C          3.4020484094       -0.2530378789       -0.5698485819
 N          3.6702860691        1.1209689911       -0.6167100416
 S          3.0704834895        2.1676329607        0.5301057090
 O          3.8461801692        3.3776079409        0.3511931389
 O          3.1101627302        1.5957572703        1.8563894088
 C          1.3892168092        2.5103716506        0.0514283599
 C          0.5518447296        3.0415384901        1.0124686604
 C         -0.7326388707        3.4160110800        0.6536434112
 C         -1.1574219413        3.2466977703       -0.6542570087
 C         -0.3126002916        2.6944642107       -1.6035353793
 C          0.9774327086        2.3289206009       -1.2534280100
 H          1.6553517983        1.8980641912       -1.9719311004
 H         -0.6512704221        2.5488896810       -2.6168212191
 H         -2.1511780814        3.5542531502       -0.9370730681
 H         -1.3933336304        3.8422896297        1.3915859916
 H          0.9209664401        3.1464511099        2.0205443403
 H          4.5792437189        1.3879653714       -0.9625176620
 H          5.2053279890       -0.8322446983       -1.5759235329
 H          4.6505818394       -3.2339832485       -1.5248281933
 H          2.5517561700       -4.0081521691       -0.5157640525
 C          0.5730259303       -2.4316434697        0.6435073389
 H          0.6316349408       -2.2241117100        1.7228940389
 C          0.2081325905       -3.8877253498        0.4433923086
 C          0.7303191111       -4.9344201599        1.3803781481
 C         -0.7153645989       -4.5431057102        1.4244636289
 H         -1.4521142590       -5.2402099402        1.0544823491
 H         -1.0593016686       -3.9445165305        2.2555453692
 H          0.9848031311       -5.9045300498        0.9808864377
 H          1.3678320814       -4.6084024000        2.1883984179
 H          0.0918559900       -4.1464352995       -0.6032461414
 O         -1.0556939992       -0.7335297905        2.2628363501
