  62
        -98.94433681
 C         -2.3174490742        1.1071133886       -0.2339497467
 C         -2.4134610469       -0.1105354154        0.4825687330
 C         -3.3863609725       -1.0818042414       -0.0362130974
 C         -4.0896247149       -0.8052351670       -1.1484962224
 C         -5.0962047571       -1.7061115613       -1.8109183233
 C         -6.5009619629       -1.6323200430       -1.1966828112
 C         -6.6482735831       -2.2924864949        0.1748302950
 H         -7.7177119159       -2.3603177935        0.3838719478
 H         -6.2601203113       -3.3105935990        0.1306083187
 C         -5.9696402849       -1.5298506191        1.3211782832
 H         -5.7629252690       -0.5049471957        1.0047401581
 H         -6.6510425264       -1.4709268431        2.1728366459
 C         -4.6720682573       -2.1629326891        1.8237493366
 H         -4.8867678479       -3.1377866144        2.2673056398
 H         -4.2577704263       -1.5213671614        2.6055986626
 C         -3.5985114894       -2.3450437782        0.7428413327
 H         -2.6543467127       -2.5965061886        1.2329441870
 H         -3.8711806134       -3.1621920345        0.0752081173
 H         -6.7978209379       -0.5831957550       -1.1297971851
 H         -7.1847920424       -2.1278566325       -1.8895769595
 H         -5.1589552560       -1.3867163351       -2.8534142853
 H         -4.7390957890       -2.7361056679       -1.7846939272
 O         -3.9430567287        0.3612471129       -1.8303589344
 C         -3.0726432684        1.3414741971       -1.3876944807
 O         -3.0590615789        2.3674446339       -2.0965610397
 H          0.3714017096        0.6340866202        1.5460361757
 C          0.7969034600        1.0031196966        0.6259357930
 C          0.0431350994        1.8314698086       -0.1917512249
 C          0.5922893991        2.2556964099       -1.3975617099
 C          1.8666700471        1.8656032557       -1.7667803183
 C          2.6169357274        1.0409505006       -0.9466049245
 C          2.0694632742        0.5959205184        0.2489184354
 N          2.8142431038       -0.2508279161        1.0877522471
 S          3.5970521869       -1.5665993086        0.4013572822
 O          2.9206257014       -2.0354271628       -0.7865000673
 O          3.7470131612       -2.5229484475        1.4764758774
 C          5.2021193792       -0.9191543534       -0.0209998927
 C          5.6871208599       -1.0567829817       -1.3067203021
 C          6.9405735599       -0.5470040027       -1.6085380785
 C          7.6833936525        0.0862969488       -0.6240576568
 C          7.1837344273        0.2127248478        0.6636414565
 C          5.9319625624       -0.2951333217        0.9718564485
 H          5.5083871384       -0.2200586085        1.9593691444
 H          7.7644751755        0.7054588960        1.4266738642
 H          8.6574188983        0.4837673080       -0.8619035314
 H          7.3305968495       -0.6449057116       -2.6089514827
 H          5.0714207029       -1.5515113968       -2.0412769490
 H          2.3105500694       -0.5294962957        1.9180053950
 H          3.6076425044        0.7279937091       -1.2327943632
 H          2.2812773030        2.2057459073       -2.7035837648
 H          0.0004268956        2.8816298716       -2.0504853842
 C         -1.3680648323        2.2245661463        0.1744698527
 H         -1.6452576632        3.0883007403       -0.4440019064
 C         -1.5139967678        2.6098509341        1.6328746056
 C         -0.9182392222        3.9010881306        2.1044886121
 C         -2.4060735067        3.7550945343        2.0018500710
 H         -2.9831706287        3.6854278053        2.9118349039
 H         -2.9161398227        4.2703204428        1.2008437656
 H         -0.4708797128        3.9345923816        3.0859703168
 H         -0.4178803088        4.5149424583        1.3709174855
 H         -1.4920563388        1.7661401869        2.3099176645
 O         -1.7372744653       -0.3931189527        1.5076429345
