  62
        -98.94683179
 C          1.2580431401        1.2096920913        0.0668182280
 C          2.0442991816        0.7264631973        1.1385415142
 C          2.7003153958       -0.5669951883        0.9161658340
 C          2.4955658004       -1.2286087178       -0.2376806586
 C          3.0775953648       -2.5676618282       -0.6018295797
 C          4.5004557639       -2.4966728643       -1.1734877964
 C          5.5968347402       -2.1780132011       -0.1563303939
 H          5.5171728135       -2.8615541087        0.6896505147
 H          6.5536111982       -2.3750589608       -0.6440996467
 C          5.5909413315       -0.7283514410        0.3484283517
 H          6.6096570064       -0.3342108689        0.3361410637
 H          5.0001240602       -0.1082045432       -0.3295347504
 C          5.0562667386       -0.5538689032        1.7699011391
 H          5.0631372709        0.5124957206        2.0100794822
 H          5.7180427517       -1.0610049652        2.4756912628
 C          3.6288405886       -1.0773826434        1.9765440982
 H          3.2665884095       -0.7118253246        2.9408321138
 H          3.6274116395       -2.1670745042        1.9939355424
 H          4.5194809050       -1.7531468820       -1.9734225635
 H          4.7213920045       -3.4695913719       -1.6185068504
 H          3.0686886324       -3.2216456973        0.2705692918
 H          2.4241748498       -2.9936059367       -1.3650897470
 O          1.6972085865       -0.7489429844       -1.2265257280
 C          1.0659294901        0.4803476252       -1.1076922751
 O          0.3752624125        0.8006583686       -2.0908253917
 O          2.1808502912        1.3397300733        2.2324682609
 C          0.5457223375        2.5423577173        0.2156307714
 C         -0.9427835449        2.3211853455        0.1142746148
 C         -1.7746781605        3.0265771430       -0.7437974482
 C         -3.1263699278        2.7313086171       -0.8107766502
 C         -3.6777612686        1.7379975069       -0.0228589981
 C         -2.8551806051        1.0361205281        0.8493441115
 C         -1.5039066881        1.3320757007        0.9140045566
 H         -0.8648147070        0.7782867931        1.5912285338
 N         -3.4043068358        0.0144322982        1.6564439666
 S         -4.0177475818       -1.3133531267        0.8383755967
 O         -5.1930588286       -0.9080768874        0.1111087186
 O         -4.2085203712       -2.3307333865        1.8473586469
 C         -2.7323296642       -1.8049135581       -0.2948931390
 C         -2.6808970870       -1.2320248546       -1.5495829292
 C         -1.6542206701       -1.5910815954       -2.4073785338
 C         -0.7025498310       -2.5110978614       -1.9973563454
 C         -0.7629476005       -3.0715260609       -0.7308499598
 C         -1.7840697192       -2.7122438024        0.1333003792
 H         -1.8713626265       -3.1310645835        1.1234292204
 H         -0.0169961245       -3.7825182419       -0.4123672481
 H          0.0953441287       -2.7828809110       -2.6702752096
 H         -1.5895489955       -1.1417230752       -3.3846316388
 H         -3.4411436003       -0.5237280409       -1.8356357114
 H         -2.7627694269       -0.3084014182        2.3677392239
 H         -4.7235817925        1.4825240175       -0.0781064966
 H         -3.7592963619        3.2820320887       -1.4899963485
 H         -1.3648084472        3.8009882482       -1.3707518625
 H          0.7738654687        2.8853201947        1.2357920704
 C          1.0843921839        3.5555309518       -0.7711400131
 C          1.0153059647        5.0196749339       -0.4586399179
 C          2.3334916079        4.3078552054       -0.4266776752
 H          3.0487368371        4.5074852979       -1.2104826336
 H          2.7850906965        4.1073623136        0.5341156830
 H          0.8274866104        5.7118892427       -1.2654061110
 H          0.5732847059        5.3096249664        0.4826009439
 H          0.9571705277        3.2433453556       -1.8013654848
