  62
        -98.94473260
 C          2.1060051200        0.9148548747       -0.0633227331
 C          2.8500683571        0.4298041143        1.0451733210
 C          3.5470165080       -0.8480183895        0.8594148783
 C          3.4226212760       -1.4965762429       -0.3124950762
 C          4.1041271262       -2.7885196245       -0.6564687375
 C          5.4651047262       -2.5413558367       -1.3223036008
 C          6.3485588014       -1.5465234949       -0.5694725779
 H          5.8816678467       -0.5595576906       -0.6038241718
 H          7.2929142633       -1.4747854151       -1.1131941217
 C          6.6270088786       -1.9244122364        0.8920407346
 H          7.6895133412       -1.7760143557        1.0955602656
 H          6.4117437281       -2.9819664552        1.0485816330
 C          5.8563017467       -1.0932834338        1.9194016592
 H          5.9929539385       -0.0300790556        1.7070163129
 H          6.2859724219       -1.2882833722        2.9054473851
 C          4.3516178895       -1.3761352770        2.0137715920
 H          3.9711792165       -0.8637836962        2.9021715710
 H          4.1851112538       -2.4481183570        2.1386593768
 H          5.2921125952       -2.1533241913       -2.3288017038
 H          5.9836130206       -3.4976891928       -1.4114706540
 H          4.2322642042       -3.3763740536        0.2505218167
 H          3.4640533634       -3.3400497879       -1.3475046863
 O          2.6872276805       -1.0150088376       -1.3447380898
 C          2.0124833994        0.1937032863       -1.2535323796
 O          1.3920985017        0.4897912520       -2.2957466279
 H         -0.5574458802        1.3134847414       -1.5439536117
 C         -0.9323994276        1.4543197570       -0.5411100204
 C         -0.0819535593        1.9343627445        0.4452248235
 C         -0.5748686658        2.0689691225        1.7381952774
 C         -1.8836835471        1.7300677600        2.0334673704
 C         -2.7228088150        1.2377559277        1.0495946491
 C         -2.2353965966        1.0898290592       -0.2418860636
 N         -3.0728140018        0.5386857600       -1.2398542095
 S         -3.4439399693       -1.0883093392       -0.9951962922
 O         -2.3932901035       -1.7661813862       -0.2679671882
 O         -3.7676465125       -1.6155259218       -2.3031691746
 C         -4.9265688631       -1.0316859524       -0.0103399861
 C         -4.9224740250       -1.5480404126        1.2704959438
 C         -6.0878952329       -1.4907786086        2.0191836417
 C         -7.2296995664       -0.9213318591        1.4764246161
 C         -7.2176327777       -0.4090667130        0.1873957539
 C         -6.0563682936       -0.4639777898       -0.5666671742
 H         -6.0032463046       -0.0845015703       -1.5733538743
 H         -8.1077522446        0.0319691992       -0.2313391681
 H         -8.1345606323       -0.8774250632        2.0617034024
 H         -6.0988958076       -1.8888537178        3.0211389955
 H         -4.0085194543       -1.9758788742        1.6506705257
 H         -2.6767788841        0.6389336380       -2.1654261785
 H         -3.7402414634        0.9612107821        1.2736065914
 H         -2.2519407210        1.8424349471        3.0416939168
 H          0.0858903969        2.4204432370        2.5173644298
 C          1.3663093261        2.2294186368        0.1370337895
 H          1.8150177477        2.6762971845        1.0342137743
 C          1.5250369654        3.2012802167       -1.0139906320
 C          1.2347906655        4.6527067386       -0.7799322781
 C          2.6467594757        4.1939975465       -0.9832559097
 H          3.1426687439        4.4378185784       -1.9108119991
 H          3.3061888225        4.1768518815       -0.1277983553
 H          0.9364778587        4.9469394604        0.2148603835
 H          0.7582138262        5.2155995772       -1.5675840743
 H          1.2633031063        2.7827229118       -1.9768739770
 O          2.9287876368        1.0452483907        2.1414189599
