  62
        -98.94479381
 C         -2.0036579116       -0.3742897922       -0.1319586442
 C         -3.0076762861       -0.7475309502        0.7992911294
 C         -4.1976457824        0.1076163611        0.8462734823
 C         -4.2669056094        1.1956945062        0.0582712735
 C         -5.3967887725        2.1882497610        0.0146904435
 C         -6.5674063109        1.7643724117       -0.8829825156
 C         -7.4355846704        0.6334075459       -0.3301098942
 H         -7.7496622401        0.8808469572        0.6844330724
 H         -8.3349987358        0.5894681117       -0.9476196901
 C         -6.7612992020       -0.7455584588       -0.3414538108
 H         -5.9011400331       -0.7246038767       -1.0145836961
 H         -7.4584339880       -1.4880129820       -0.7362687822
 C         -6.3034366860       -1.2392829696        1.0309507651
 H         -5.8089292439       -2.2050360725        0.8998364977
 H         -7.1727619007       -1.3909130359        1.6745866414
 C         -5.3249460450       -0.2989328321        1.7467009669
 H         -5.8513527075        0.5805136509        2.1172240727
 H         -4.8945393999       -0.8335665672        2.5969564693
 H         -7.2010135665        2.6425212755       -1.0271565148
 H         -6.1720063366        1.4764975874       -1.8598919324
 H         -5.7605489087        2.3736527187        1.0258400633
 H         -4.9788851892        3.1170582105       -0.3798761549
 O         -3.2722876463        1.5370155259       -0.8013915472
 C         -2.1279645777        0.7615252266       -0.9320935167
 O         -1.3281243020        1.1953072858       -1.7844724999
 O         -2.9112788957       -1.7498996836        1.5553273291
 C         -0.7585573477       -1.2436927055       -0.2018611381
 C          0.3877777603       -0.5207278233        0.4617612830
 C          0.6534575651       -0.7302715815        1.8112099984
 C          1.6883195091       -0.0617209242        2.4402009492
 C          2.4786156844        0.8298609980        1.7368739864
 C          2.2148478720        1.0513265030        0.3913659213
 C          1.1843894177        0.3706659718       -0.2418254126
 H          0.9757637493        0.5657228814       -1.2820368210
 N          3.0199478596        1.9514864401       -0.3296966231
 S          4.6752789157        1.7385150551       -0.2056345270
 O          5.1582595277        2.3827724017        0.9908354695
 O          5.2248118090        2.2305445614       -1.4496122267
 C          4.8985912738       -0.0274000358       -0.0700526592
 C          4.4267307346       -0.8231526432       -1.0954676900
 C          4.5491216327       -2.1984080695       -0.9868853894
 C          5.1383964158       -2.7524124888        0.1393864686
 C          5.6117738376       -1.9400563280        1.1576310518
 C          5.4885936356       -0.5634106944        1.0560970979
 H          5.8363483752        0.1048557655        1.8269201364
 H          6.0706002832       -2.3735361742        2.0316004163
 H          5.2281245649       -3.8240596572        0.2221419822
 H          4.1796825465       -2.8323392677       -1.7769087442
 H          3.9767864007       -0.3625857988       -1.9603443641
 H          2.7323908138        2.0692660474       -1.2901947499
 H          3.2877145955        1.3641435023        2.2083666586
 H          1.8828057241       -0.2358565418        3.4873964354
 H          0.0296158606       -1.4166701942        2.3656847225
 H         -0.9936436091       -2.1269891871        0.4066506964
 C         -0.4299149549       -1.6968086199       -1.6104987575
 C          0.6154325570       -2.7531177727       -1.8062197089
 C         -0.8278783501       -3.0714633290       -2.0529311863
 H         -1.1607572372       -3.2079135386       -3.0711000886
 H         -1.3424837510       -3.6978015989       -1.3391250111
 H          1.2745179396       -2.6720358634       -2.6568791193
 H          1.0824445356       -3.1590734907       -0.9218040975
 H         -0.4915088556       -0.9049868302       -2.3461730264
