  62
        -98.94221998
 C         -1.2860576235       -1.6281095774        0.2396971878
 C         -1.7036482760       -0.6378554090        1.1659064808
 C         -2.9653722906        0.0449413033        0.8592312323
 C         -3.6292564099       -0.2582080893       -0.2709384618
 C         -4.9544588003        0.3097005200       -0.7026808247
 C         -4.8661881960        1.6770207171       -1.3932571378
 C         -4.5538828065        2.8538567094       -0.4685518990
 H         -4.7512539887        3.7663212959       -1.0345642244
 H         -5.2409598792        2.8422429615        0.3780527720
 C         -3.1055188651        2.8922446049        0.0379574866
 H         -2.4815913460        2.2512710847       -0.5887147794
 H         -2.7199932021        3.9092702648       -0.0533961845
 C         -2.9266676415        2.4738946248        1.4969575126
 H         -1.8584107396        2.4804699224        1.7276707708
 H         -3.4201703461        3.1964998030        2.1510217912
 C         -3.4654616611        1.0768183195        1.8249625572
 H         -3.1089027574        0.7976195608        2.8198149035
 H         -4.5556033265        1.0861690555        1.8359975915
 H         -4.1129462061        1.6223381105       -2.1821425698
 H         -5.8324827450        1.8624443758       -1.8679440520
 H         -5.3805237127       -0.4061387253       -1.4089479586
 H         -5.6175632792        0.3801304792        0.1605143822
 O         -3.1689952652       -1.1748179529       -1.1608184827
 C         -2.0068255569       -1.8974753227       -0.9245669803
 O         -1.7501177871       -2.7311873511       -1.8125428275
 O         -1.0665734869       -0.3579796657        2.2170714311
 C         -0.0494855689       -2.4400161531        0.5884802012
 C          1.1109842483       -2.1341980858       -0.3269798552
 C          1.3048414833       -2.8009024153       -1.5318881088
 C          2.4004839520       -2.5094073039       -2.3238496253
 C          3.3261095684       -1.5602026437       -1.9300888528
 C          3.1409714714       -0.8856680620       -0.7280636085
 C          2.0327845613       -1.1678930199        0.0582044207
 H          1.8991996389       -0.6402488026        0.9915320365
 N          4.0871282820        0.0541476063       -0.2978830507
 S          3.7096031213        1.3423592629        0.6793285718
 O          4.8558702922        2.2195421150        0.5602680272
 O          3.4032660881        0.8968728370        2.0150851775
 C          2.2972422057        2.1622922642       -0.0411291144
 C          2.1031834929        2.1421918515       -1.4077112676
 C          1.0551088042        2.8713612506       -1.9468469186
 C          0.2350120573        3.6210810403       -1.1191234971
 C          0.4448021044        3.6347451929        0.2508710118
 C          1.4808131991        2.8946149629        0.7968229897
 H          1.6696450971        2.8674729400        1.8582787174
 H         -0.1913340492        4.2203882611        0.8950770722
 H         -0.5707999574        4.1981635640       -1.5442226295
 H          0.8869066602        2.8569078841       -3.0118405359
 H          2.7563967772        1.5631200472       -2.0395464360
 H          4.8249057036        0.2674046459       -0.9518994296
 H          4.1902933472       -1.3469842630       -2.5406517606
 H          2.5382033060       -3.0327678846       -3.2577329601
 H          0.5824680215       -3.5314934348       -1.8552232469
 H          0.2319856782       -2.1028559549        1.5959515237
 C         -0.3576697791       -3.9243314800        0.6483998575
 C          0.5966077120       -4.8398296304        1.3524862047
 C         -0.7406218136       -4.5399280598        1.9589482672
 H         -1.4917653636       -5.3156387245        1.9640648398
 H         -0.7763403343       -3.8931381916        2.8236757647
 H          0.7665293674       -5.8234467271        0.9424756696
 H          1.4697792828       -4.3945432634        1.8056149530
 H         -0.8585044115       -4.2981336897       -0.2356207508
