  62
        -98.93945958
 C         -2.6221188499       -1.1915331201        0.2978943803
 C         -2.5327681600       -0.1786044001       -0.6894944897
 C         -3.7385626200        0.6480722100       -0.8690667995
 C         -4.8291236999        0.4064829600       -0.1209680993
 C         -6.0999558599        1.2030221100       -0.1683067391
 C         -6.0714231797        2.3518884400        0.8494872909
 C         -4.7972357897        3.1947405000        0.7934588208
 H         -4.9028293396        3.9927658699        1.5315580508
 H         -3.9486570197        2.5806551199        1.1040190706
 C         -4.5014131599        3.8067675700       -0.5828901193
 H         -5.4050423300        3.7993714800       -1.1935448491
 H         -4.2111769299        4.8506091800       -0.4464778493
 C         -3.3660987900        3.1257328700       -1.3495914395
 H         -2.4847215000        3.0472173899       -0.7079101696
 H         -3.0983587502        3.7631157800       -2.1965331995
 C         -3.6795588202        1.7320815500       -1.9084206494
 H         -4.6070434603        1.7655157800       -2.4838030493
 H         -2.8648104303        1.4554717200       -2.5841083796
 H         -6.9400086197        2.9894172900        0.6747551511
 H         -6.1575278996        1.9277147000        1.8525912409
 H         -6.2394839101        1.5965556800       -1.1732521991
 H         -6.9317593499        0.5381713500        0.0706657010
 O         -4.8781370198       -0.5750477300        0.8157398107
 C         -3.7774331798       -1.3770748601        1.0631518805
 O         -3.9478596597       -2.2076705701        1.9779749805
 H          0.7196909799       -1.9150993802       -1.0535134902
 C          0.8283269500       -1.3176393702       -0.1614333002
 C         -0.1887371298       -1.2954469302        0.7791373300
 C         -0.0354919896       -0.4922698002        1.9053555299
 C          1.1055067104        0.2671063198        2.0830502498
 C          2.1167246603        0.2453858498        1.1386312196
 C          1.9709787301       -0.5472359402        0.0088171796
 N          2.9888632799       -0.5556536302       -0.9616370305
 S          4.5473084900       -0.9185192103       -0.4601703208
 O          5.2139882598       -1.4438386703       -1.6321399209
 O          4.5398771601       -1.7692602103        0.7080747892
 C          5.2551894101        0.6642030297       -0.0549725408
 C          5.8036469403        0.8713053397        1.1954395791
 C          6.3673874404        2.1043826596        1.4843381190
 C          6.3735011702        3.1026434997        0.5222733191
 C          5.8190024800        2.8783693297       -0.7292285309
 C          5.2549551100        1.6476522997       -1.0247382708
 H          4.8174696698        1.4326800398       -1.9854314708
 H          5.8249252999        3.6575476697       -1.4744198009
 H          6.8130622803        4.0612021296        0.7488992190
 H          6.7987297605        2.2806592196        2.4566356690
 H          5.7717741804        0.0670871196        1.9131270991
 H          2.7478917398       -1.0691415302       -1.7968465105
 H          3.0080309403        0.8381402997        1.2665108195
 H          1.2085261506        0.8839762397        2.9629878598
 H         -0.8286942795       -0.4699080202        2.6408394201
 C         -1.4524214399       -2.1047464601        0.6270792901
 H         -1.6967913098       -2.5303669301        1.6141080602
 C         -1.2914690901       -3.2858264001       -0.3189837999
 C         -2.4940704302       -3.9783395601       -0.8852419198
 C         -1.5824837703       -3.2032041201       -1.7860824599
 H         -0.9457308704       -3.7539926601       -2.4637396300
 H         -1.9252929003       -2.2598243000       -2.1801664898
 H         -2.4866023602       -5.0562293201       -0.9451271098
 H         -3.4629593501       -3.5602704800       -0.6536146596
 H         -0.4635805500       -3.9242350101       -0.0228966301
 O         -1.5149119901        0.0355272699       -1.3961675898
