  62
        -98.94492680
 C         -2.1910747380       -0.9404978703        0.5441937769
 C         -2.3577882577       -0.1723211746       -0.6338270774
 C         -3.1623020938        1.0479042018       -0.4876476985
 C         -3.6350581318        1.3989891161        0.7218221919
 C         -4.4530821704        2.6229509943        1.0332113006
 C         -5.9547021225        2.4549147608        0.7626171349
 C         -6.3514406223        2.4291036539       -0.7139987292
 H         -7.4378490791        2.5290047203       -0.7549938124
 H         -5.9254674229        3.2970262858       -1.2183061753
 C         -5.9454389746        1.1487060491       -1.4571227606
 H         -5.7140481286        0.3645656010       -0.7326138259
 H         -6.7867765387        0.7932721970       -2.0561302195
 C         -4.7552451088        1.3146305321       -2.4022479200
 H         -5.0209418541        1.9993124145       -3.2106596512
 H         -4.5302952316        0.3412531418       -2.8452701526
 C         -3.4790624729        1.8317615329       -1.7251883430
 H         -2.6438385128        1.7060373315       -2.4190128175
 H         -3.5796627881        2.8913770384       -1.4902824194
 H         -6.2961029814        1.5377845556        1.2480727349
 H         -6.4664647857        3.2939344848        1.2396093051
 H         -4.3154936712        2.8262758349        2.0975221303
 H         -4.0716745103        3.4726220178        0.4659238779
 O         -3.3952118441        0.6661507515        1.8425788479
 C         -2.6858065396       -0.5231384575        1.7789437094
 O         -2.5532128143       -1.1008457544        2.8780605773
 H          0.2185556709       -0.4594828620        1.5778659420
 C          0.7125084343       -0.9828476268        0.7672341766
 C          0.0126534454       -1.9650746915        0.0763577505
 C          0.6544964868       -2.6296930237       -0.9593459340
 C          1.9566151380       -2.3034137548       -1.2986498788
 C          2.6473795228       -1.3230567667       -0.6109924205
 C          2.0167382616       -0.6561491165        0.4317579001
 N          2.7164972281        0.3290465103        1.1525966833
 S          3.4638254038        1.5579259165        0.2834272486
 O          3.5579536515        2.6676889130        1.2076026996
 O          2.7850364075        1.8171379660       -0.9651723962
 C          5.0981975602        0.9219706257       -0.0255810957
 C          5.5725029632        0.8415252941       -1.3201986061
 C          6.8496703999        0.3472536476       -1.5360640545
 C          7.6254383634       -0.0543007366       -0.4594068039
 C          7.1351785335        0.0358568011        0.8350217408
 C          5.8599853969        0.5301139676        1.0578955053
 H          5.4427006862        0.6203362126        2.0468917861
 H          7.7414042717       -0.2771775696        1.6697211102
 H          8.6180368593       -0.4400946374       -0.6301652323
 H          7.2323652112        0.2769444563       -2.5415669945
 H          4.9302511786        1.1599257185       -2.1259858398
 H          2.1857578596        0.7172136616        1.9193562475
 H          3.6597030399       -1.0650741018       -0.8754361695
 H          2.4409043420       -2.8216934393       -2.1120981370
 H          0.1326592564       -3.3948422639       -1.5096565887
 C         -1.4102984027       -2.2425667347        0.4983265811
 H         -1.3888692524       -2.6194220507        1.5314242563
 C         -2.1221641247       -3.2531537738       -0.3756447672
 C         -1.9443301300       -4.7198628275       -0.1268741344
 C         -3.2432738528       -4.0542335701        0.2123990855
 H         -4.1070034922       -4.2604961691       -0.4017253786
 H         -3.4789434329       -3.8876344136        1.2537737913
 H         -1.2989288197       -5.0135713460        0.6869657277
 H         -1.9188118828       -5.3877738419       -0.9744786743
 H         -2.2337761907       -2.9142098218       -1.3989411633
 O         -1.8654873588       -0.4856694754       -1.7481726771
