  62
        -98.93250504
 C         -2.2956483229       -0.8317840518        0.6319018759
 C         -3.4032460398       -0.9076989878       -0.2463697265
 C         -4.5639028454       -0.0616835463        0.0892342648
 C         -4.5285659464        0.7166289331        1.1830662446
 C         -5.6027180193        1.6241864058        1.7284879871
 C         -6.3725300080        2.4947544057        0.7254207953
 C         -5.5580918541        2.9616589594       -0.4898538169
 H         -5.6734130810        4.0416077651       -0.5997888399
 H         -4.4970347982        2.7627180738       -0.3286789144
 C         -6.0076464291        2.3060266047       -1.7979038488
 H         -5.6706611583        2.9239126321       -2.6336611809
 H         -7.0994087813        2.2887804437       -1.8234319681
 C         -5.4792270271        0.8925287888       -2.0385051340
 H         -5.9610811473        0.5018171851       -2.9378837701
 H         -4.4051363455        0.9280363120       -2.2399285106
 C         -5.7041539029       -0.1018216703       -0.8876137616
 H         -6.6589721435        0.0708132867       -0.3975073076
 H         -5.7052687101       -1.1102164732       -1.3096353251
 H         -6.7343086711        3.3642657542        1.2767948720
 H         -7.2527932601        1.9567382707        0.3764462599
 H         -6.3137239769        1.0101396436        2.2889031144
 H         -5.0911453196        2.2637196452        2.4518212648
 O         -3.4447379978        0.7518766071        2.0102236523
 C         -2.3163781098       -0.0046398660        1.7581019822
 O         -1.4106571992        0.1372157684        2.6058867778
 H          1.3586865804       -0.3908931718        0.8009781475
 C          1.0691740664       -0.4025023237       -0.2402599195
 C         -0.1342561809       -0.9795168018       -0.6196854784
 C         -0.4925995470       -0.9599846610       -1.9639833648
 C          0.3437621083       -0.3821875605       -2.9011709290
 C          1.5557099328        0.1682632061       -2.5234708558
 C          1.9175258532        0.1638989609       -1.1814026689
 N          3.1283454435        0.7395333647       -0.7641371362
 S          3.9527726952        0.0320058428        0.5277080206
 O          3.9318864794       -1.4077876363        0.3976960600
 O          3.4394509934        0.5701930793        1.7624068175
 C          5.5984490271        0.6542868196        0.2368825003
 C          5.9242634566        1.9157266338        0.6982253975
 C          7.1917567096        2.4150657681        0.4438564383
 C          8.1066739164        1.6497583402       -0.2641261729
 C          7.7659975340        0.3846568095       -0.7188101195
 C          6.4996536687       -0.1204384455       -0.4689392586
 H          6.1933717001       -1.1015668081       -0.7945933329
 H          8.4806654296       -0.2091828991       -1.2654417435
 H          9.0925939868        2.0407790986       -0.4597721382
 H          7.4610454233        3.3967236304        0.7989281598
 H          5.1829802257        2.4686865603        1.2515715926
 H          3.7477194853        0.9556124451       -1.5333049668
 H          2.2134786195        0.6061647329       -3.2589805487
 H          0.0541033335       -0.3715756220       -3.9411688940
 H         -1.4368208136       -1.3887912202       -2.2612035962
 C         -1.0129758089       -1.6223528335        0.4275666138
 H         -0.4754728100       -1.5638066777        1.3845630197
 C         -1.2520014401       -3.0853904309        0.1053046732
 C         -0.1169796438       -4.0491682003        0.2698654761
 C         -1.2771576877       -4.0866895326        1.2181847063
 H         -1.9703735345       -4.9118710927        1.1531623031
 H         -1.1258421797       -3.7211043762        2.2239232118
 H         -0.0130043235       -4.8497972062       -0.4463063946
 H          0.8238609668       -3.6561465802        0.6282921068
 H         -1.9322758068       -3.2408492794       -0.7211577764
 O         -3.4546390944       -1.6463390435       -1.2643737650
