  62
        -98.93791757
 C         -1.6789762731       -0.9549354300       -0.0276298101
 C         -3.0018399109       -1.2407971362        0.3776040955
 C         -4.0093313133       -0.1909558396        0.1371602427
 C         -3.6199566759        0.9712230468       -0.4175970059
 C         -4.4545004554        2.1783771384       -0.7642806377
 C         -5.4877703095        2.6277111564        0.2803925622
 C         -6.9345310826        2.3707193102       -0.1448661516
 H         -7.0287132051        2.5937596014       -1.2097147416
 H         -7.5851799376        3.0649055450        0.3916963954
 C         -7.4490103005        0.9571710171        0.1219028218
 H         -8.4293751322        0.8672788420       -0.3519276994
 H         -7.5944309688        0.8219685931        1.1959154675
 C         -6.5526195565       -0.1726128685       -0.3889124856
 H         -6.1511062503        0.0723566741       -1.3716122157
 H         -7.1743619770       -1.0619830591       -0.5123240228
 C         -5.4088181266       -0.5320986043        0.5712876753
 H         -5.3910994426       -1.6146225247        0.7319228376
 H         -5.5928136505       -0.0870865198        1.5534679833
 H         -5.3669183657        3.7022807313        0.4266100888
 H         -5.2826402895        2.1475161569        1.2358287596
 H         -4.9511214512        1.9918689827       -1.7198122833
 H         -3.7331237989        2.9793642830       -0.9408385181
 O         -2.3268466023        1.2063078663       -0.7837662583
 C         -1.3306404618        0.2614179030       -0.6106306214
 O         -0.2050532720        0.6217136100       -1.0018931914
 O         -3.3316501338       -2.3300615137        0.9208052001
 C         -0.6020424421       -2.0058350058        0.1682421708
 C          0.5284268325       -1.4467791706        0.9950249480
 C          0.2340432406       -0.8560308913        2.2223256814
 C          1.2357544903       -0.3293025216        3.0131830076
 C          2.5548429253       -0.3732059652        2.5943414853
 C          2.8608070920       -0.9667845412        1.3769690056
 C          1.8520625546       -1.5089899427        0.5903012775
 H          2.1225529710       -1.9575673377       -0.3502808267
 N          4.1944255532       -1.0535538160        0.9332052973
 S          4.6189844448       -0.4027184378       -0.5504911516
 O          3.8720411141       -1.0423951217       -1.6010725906
 O          6.0577789335       -0.5444107349       -0.6117129679
 C          4.2013894266        1.3267935187       -0.4206021412
 C          2.8856277700        1.7232445791       -0.5514760625
 C          2.5772622454        3.0645722086       -0.3802010073
 C          3.5762687159        3.9783303321       -0.0838152479
 C          4.8931244030        3.5617751570        0.0440276736
 C          5.2094645764        2.2235756414       -0.1203756480
 H          6.2187125145        1.8543241158       -0.0339899897
 H          5.6700040195        4.2735632625        0.2725954414
 H          3.3264002601        5.0196000291        0.0467623823
 H          1.5492066767        3.3748102106       -0.4813574101
 H          2.1137573858        1.0064992261       -0.7842648253
 H          4.8710827948       -0.7623936128        1.6253906520
 H          3.3395011627        0.0441877572        3.2070446894
 H          0.9895576150        0.1258352217        3.9606131889
 H         -0.7975174350       -0.8151674001        2.5451549204
 H         -1.0811584915       -2.8132706531        0.7418956280
 C         -0.1601973178       -2.5597506908       -1.1699217907
 C          0.3729397115       -3.9567450053       -1.2678635027
 C         -0.9811861099       -3.6306593724       -1.8205833561
 H         -1.1098379004       -3.6024854138       -2.8922725114
 H         -1.8512156687       -3.9816091338       -1.2848792102
 H          1.1794835227       -4.1505288541       -1.9591791754
 H          0.4230500428       -4.5370560903       -0.3588868668
 H          0.2748177716       -1.8042935104       -1.8159524153
