  62
        -98.93159678
 C         -2.5831786650       -1.3355384048       -0.3250198317
 C         -2.5094218946       -0.0396410950       -0.8895794875
 C         -3.7273107625        0.7778424574       -0.7795556936
 C         -4.8196143588        0.2745770438       -0.1781076852
 C         -6.1558566668        0.9513847788       -0.0234646382
 C         -6.1816256881        2.2079937052        0.8681584932
 C         -6.0199805921        3.5283677190        0.1047371694
 H         -6.3400167476        3.3787083753       -0.9271270444
 H         -6.6954730043        4.2688265770        0.5379997539
 C         -4.6163901274        4.1414715413        0.1209132523
 H         -4.5818110428        4.9170555716       -0.6472603218
 H         -4.4502456633        4.6268572780        1.0853677752
 C         -3.4589552600        3.1685295651       -0.1060078867
 H         -2.5504353231        3.7514470939       -0.2698707384
 H         -3.2872072672        2.5824614797        0.8003023487
 C         -3.6603494920        2.1912913366       -1.2803907935
 H         -4.5589335284        2.4430359113       -1.8415166079
 H         -2.8045608022        2.2417427267       -1.9563714188
 H         -5.4204120615        2.1194329971        1.6430186688
 H         -7.1513049464        2.2206655069        1.3683723462
 H         -6.5385681559        1.2028823174       -1.0151474693
 H         -6.8158627869        0.1955272474        0.4069649014
 O         -4.8486390663       -0.9805061094        0.3491863530
 C         -3.7360834237       -1.8014898935        0.3099363871
 O         -3.8971258432       -2.9103380061        0.8590916771
 H          0.9086741394       -0.8818911461       -1.0007391637
 C          0.7809716173       -0.9947502875        0.0641533192
 C         -0.3190030736       -1.6783900770        0.5560020937
 C         -0.4710807772       -1.7939963377        1.9352901878
 C          0.4548059547       -1.2368209440        2.7965188673
 C          1.5456581322       -0.5425583335        2.3023862464
 C          1.7026339223       -0.4156410336        0.9290962073
 N          2.7876416429        0.3196802124        0.4157064524
 S          4.3155341132        0.0130575014        1.0648584006
 O          4.5708128878       -1.4108062051        1.0865385946
 O          4.4204343008        0.6877332512        2.3343317968
 C          5.3594290760        0.8159573826       -0.1349789683
 C          5.9072880413        0.0711040301       -1.1620058530
 C          6.6957565615        0.7097533456       -2.1061931441
 C          6.9184037827        2.0751445227       -2.0097461816
 C          6.3617996336        2.8091014812       -0.9727730906
 C          5.5737253595        2.1765848766       -0.0245486920
 H          5.1289543172        2.7039043104        0.8030806775
 H          6.5395418761        3.8699344124       -0.9001491817
 H          7.5323502357        2.5697365173       -2.7458089194
 H          7.1326935508        0.1415103597       -2.9115317239
 H          5.7157422765       -0.9896224298       -1.1925041936
 H          2.8139354758        0.2912620179       -0.5946873466
 H          2.2759479652       -0.1031418457        2.9624727402
 H          0.3271215457       -1.3400121990        3.8639550269
 H         -1.3314732496       -2.3239627072        2.3215054448
 C         -1.3813130074       -2.2668231516       -0.3410254002
 H         -1.7230476690       -3.2062002590        0.1142503514
 C         -0.9123186700       -2.5530114780       -1.7518131064
 C          0.0125718640       -3.7059113801       -1.9980026484
 C         -1.4136814562       -3.7783642485       -2.4522433639
 H         -1.6224449813       -3.7177832640       -3.5098286634
 H         -2.0919857351       -4.4211411902       -1.9101920730
 H          0.7844748139       -3.5997791483       -2.7449357614
 H          0.3053513086       -4.2999436180       -1.1451649100
 H         -0.7844525729       -1.6597914529       -2.3502934433
 O         -1.4912960369        0.4182916923       -1.4704127202
