  62
        -98.93965523
 C         -1.5994215126       -1.4066362488       -0.3563665334
 C         -1.4179890416       -0.0272188964       -0.6043120453
 C         -2.3326524394        0.9045769890        0.0873636275
 C         -3.2995232400        0.4064408554        0.8779962425
 C         -4.3623733844        1.1592733647        1.6320445121
 C         -5.4862865152        1.6763401997        0.7166799357
 C         -5.0205250317        2.2618111112       -0.6143968597
 H         -4.4259250684        1.5157739484       -1.1446568052
 H         -5.9094805094        2.4587449405       -1.2193881333
 C         -4.2282353309        3.5628602616       -0.5129600931
 H         -4.0044710495        3.8889151810       -1.5317932679
 H         -4.8550438805        4.3279415523       -0.0490488084
 C         -2.9126318725        3.4843968436        0.2632496317
 H         -3.0944076515        3.4415913461        1.3338742548
 H         -2.3684119967        4.4158763802        0.0800189606
 C         -1.9821364649        2.3518870857       -0.1602482765
 H         -1.7866014061        2.4351803011       -1.2353526159
 H         -1.0107736140        2.4981095946        0.3318645809
 H         -6.1489959642        0.8366167821        0.4941018884
 H         -6.0617205170        2.4239331880        1.2650062487
 H         -4.7933801046        0.4591448552        2.3512849693
 H         -3.9095084343        1.9710837872        2.1942987588
 O         -3.4689567776       -0.9350718489        1.0564827003
 C         -2.6189484709       -1.8588476133        0.4854621914
 O         -2.8767102615       -3.0439917349        0.7827989551
 H          1.1712713231       -0.6258769384       -0.2466986369
 C          1.3524878852       -1.5631318772        0.2506515469
 C          0.5084578783       -2.6406463742        0.0159065759
 C          0.7566256736       -3.8420950190        0.6681752137
 C          1.8166102340       -3.9558096442        1.5501602964
 C          2.6281575511       -2.8685687551        1.8144554631
 C          2.3885569733       -1.6598898778        1.1668391640
 N          3.2008981911       -0.5493046076        1.4266103554
 S          2.6236684827        1.0278129888        1.4522827166
 O          3.3931631344        1.6650336712        2.5037326953
 O          1.1896765481        1.0784960300        1.5995141223
 C          3.1697841598        1.6899549551       -0.1079532304
 C          4.5124839264        2.0016378209       -0.2181411341
 C          4.9906937661        2.5073899696       -1.4147881555
 C          4.1215584693        2.6937005778       -2.4798786717
 C          2.7787189765        2.3773413865       -2.3526767054
 C          2.2921999400        1.8695052518       -1.1565313023
 H          1.2515864333        1.6060696734       -1.0429076184
 H          2.0985346049        2.5176278107       -3.1777128499
 H          4.4918319486        3.0881253557       -3.4131245359
 H          6.0352754813        2.7549146780       -1.5143658259
 H          5.1485081570        1.8552263961        0.6390359026
 H          3.8824380082       -0.6931450369        2.1570863205
 H          3.4390931543       -2.9479596185        2.5228021440
 H          2.0005515518       -4.8939967012        2.0516475121
 H          0.0990682799       -4.6819646632        0.4976484242
 C         -0.6838028295       -2.4934295401       -0.9011402471
 H         -1.2639095794       -3.4249274694       -0.8441548604
 C         -0.2514919236       -2.2886650600       -2.3387764769
 C          0.1734269862       -3.4800999375       -3.1416233910
 C         -1.1247326378       -2.7952887540       -3.4451804173
 H         -1.2036428545       -2.2084423838       -4.3477868382
 H         -2.0422862178       -3.2946951283       -3.1686131375
 H          0.9898666308       -3.3658804179       -3.8377653161
 H          0.1351131894       -4.4469160856       -2.6627615889
 H          0.2695755696       -1.3559207353       -2.5048266851
 O         -0.5418995324        0.4432242061       -1.3778896731
