  62
        -98.93761555
 C         -2.3149392755       -1.2585516117       -0.0767799591
 C         -3.3952677374       -0.9147778154        0.7745155434
 C         -4.3390255986        0.0838312964        0.2576502375
 C         -4.1385847946        0.6180789275       -0.9603921551
 C         -5.0272145974        1.6063797369       -1.6688059898
 C         -5.1534051556        2.9995227470       -1.0227115289
 C         -6.3540375383        3.1538983836       -0.0808281102
 H         -6.7938338699        4.1416283014       -0.2329843084
 H         -7.1158388514        2.4254578629       -0.3611886909
 C         -6.0496143054        3.0260683467        1.4148023205
 H         -5.5960135733        3.9553258179        1.7669481947
 H         -6.9992957166        2.9039875199        1.9400473862
 C         -5.1149999613        1.8825452990        1.8095787335
 H         -5.1381526180        1.7830838311        2.8965560131
 H         -4.0864136087        2.1406994263        1.5457287492
 C         -5.4522140735        0.5250245050        1.1628603352
 H         -6.3914313078        0.5823631387        0.6148859153
 H         -5.5486688813       -0.2412844099        1.9344366766
 H         -5.2665449790        3.7155719866       -1.8383620477
 H         -4.2263420239        3.2456415567       -0.5052643391
 H         -4.5999171676        1.7152175777       -2.6678309436
 H         -6.0214189831        1.1667006122       -1.7772484568
 O         -3.0806391769        0.2703035124       -1.7424935827
 C         -2.1398533242       -0.6593109707       -1.3238933787
 O         -1.2297946687       -0.8606214489       -2.1522035149
 O         -3.5697057476       -1.4304022645        1.9102926740
 C         -1.3128699860       -2.2846063765        0.4280182398
 C         -0.0158238153       -1.5750519911        0.7275865091
 C          0.1493727810       -0.9453439516        1.9582611386
 C          1.3005833752       -0.2332367861        2.2373133280
 C          2.3065476528       -0.1238769587        1.2925368429
 C          2.1419407616       -0.7307984759        0.0553341831
 C          0.9953490129       -1.4666654499       -0.2141679100
 H          0.8752266849       -1.9217525077       -1.1844898343
 N          3.1495760503       -0.6143447365       -0.9177902603
 S          3.8039423842        0.9045896612       -1.2046097587
 O          2.8669235682        1.9627547601       -0.9044367329
 O          4.3049680419        0.8519996727       -2.5609488260
 C          5.1883524433        0.9764748949       -0.0847096752
 C          6.1079138326       -0.0535869075       -0.1211203317
 C          7.1942337373       -0.0118798857        0.7379916939
 C          7.3441431244        1.0544844836        1.6121787465
 C          6.4150337678        2.0831883622        1.6335650338
 C          5.3253234406        2.0468514313        0.7771974924
 H          4.5744900198        2.8210588433        0.7629664526
 H          6.5332012621        2.9119462691        2.3130748932
 H          8.1901194374        1.0842213120        2.2805596597
 H          7.9189463492       -0.8099146834        0.7238922046
 H          5.9559717308       -0.8617938239       -0.8167289759
 H          2.9139298711       -1.0673575755       -1.7894796901
 H          3.2018058894        0.4396178098        1.4984664768
 H          1.4169686099        0.2449915149        3.1980031417
 H         -0.6454547032       -1.0108300869        2.6880703405
 H         -1.7282384253       -2.6485308018        1.3772689182
 C         -1.1647248243       -3.4573132060       -0.5183522119
 C         -0.4989877495       -4.7086532625       -0.0316362732
 C         -1.9761729926       -4.6943545456       -0.2822105248
 H         -2.3607457230       -5.2277689250       -1.1386142704
 H         -2.6401234282       -4.7010454392        0.5696463618
 H          0.1333832666       -5.2557487802       -0.7138871947
 H         -0.1587744192       -4.7230538092        0.9926370256
 H         -1.0043821791       -3.1639021037       -1.5485334244
