  62
        -98.94530962
 C         -2.1384024880       -0.8978193466        0.0721598857
 C         -2.8447495585       -0.2178865084        1.0921274437
 C         -3.5659702850        0.9930133074        0.6784605243
 C         -3.4780379745        1.4055233505       -0.5995183976
 C         -4.1979985930        2.5935764037       -1.1674425909
 C         -5.5643813791        2.1929290493       -1.7413831882
 C         -6.4082783176        1.3433698668       -0.7910818497
 H         -7.3602348259        1.1477138863       -1.2891290035
 H         -5.9172985920        0.3785282968       -0.6451270854
 C         -6.6698738057        1.9903643460        0.5761741636
 H         -6.4808063186        3.0630140528        0.5207716214
 H         -7.7239423934        1.8595401440        0.8295315736
 C         -5.8582789026        1.3918170088        1.7264597441
 H         -5.9714703136        0.3048395566        1.7275558865
 H         -6.2735359632        1.7654013404        2.6661674522
 C         -4.3598063531        1.7198696888        1.7276568484
 H         -4.2187135895        2.7992062100        1.6392922933
 H         -3.9498518221        1.3977130269        2.6895562257
 H         -6.1088517065        3.1025733613       -2.0011297897
 H         -5.3998328687        1.6215552668       -2.6578203316
 H         -4.3246928918        3.3424609812       -0.3878480341
 H         -3.5860450087        3.0152533587       -1.9668254072
 O         -2.7496349383        0.7529377490       -1.5412465271
 C         -2.0682501533       -0.4169206526       -1.2357197792
 O         -1.4521830277       -0.9178480836       -2.1945890030
 O         -2.8644754214       -0.6014295291        2.2936087384
 C         -1.3815046708       -2.1670686744        0.4216097378
 C          0.0919626598       -1.9667909268        0.1645466332
 C          0.8717805976       -2.8432939163       -0.5772705888
 C          2.2131044619       -2.5758888561       -0.7927152056
 C          2.8061195833       -1.4420986972       -0.2693419588
 C          2.0367650180       -0.5619209663        0.4808731384
 C          0.6950506495       -0.8325544622        0.6953979834
 H          0.0950917425       -0.1417381958        1.2761171363
 N          2.6328037873        0.5886837634        1.0306974913
 S          3.4756681882        1.6018792111       -0.0129024336
 O          3.4385400706        2.9043157427        0.6173517638
 O          2.9633466361        1.5255049691       -1.3615762268
 C          5.1419331532        0.9770744739        0.0494225965
 C          5.7564813897        0.8847444518        1.2830252979
 C          7.0550917093        0.4059062352        1.3488489785
 C          7.7144273868        0.0329852351        0.1868453638
 C          7.0847790732        0.1351725490       -1.0441554012
 C          5.7850917884        0.6123636316       -1.1170261946
 H          5.2523625600        0.7036800688       -2.0503354096
 H          7.5986589717       -0.1546880798       -1.9465868460
 H          8.7250774227       -0.3397263995        0.2409115125
 H          7.5480242604        0.3249017864        2.3041957657
 H          5.2098576340        1.1884518970        2.1600869683
 H          2.0011172001        1.1302420775        1.6036932459
 H          3.8483354942       -1.2280669081       -0.4410377404
 H          2.8052199240       -3.2613393619       -1.3795691972
 H          0.4277302210       -3.7298507967       -0.9986875252
 H         -1.5237083505       -2.3027801102        1.5042348127
 C         -1.9730546719       -3.3583164645       -0.3010250185
 C         -1.8542134466       -4.7313875436        0.2877941219
 C         -3.1789360825       -4.0314572070        0.2804057862
 H         -3.9472707207       -4.3831377961       -0.3917042253
 H         -3.5604497621       -3.6449359941        1.2143472568
 H         -1.7148563880       -5.5682920984       -0.3795393881
 H         -1.3375773731       -4.8269639143        1.2306520605
 H         -1.9293178837       -3.2545098421       -1.3793773883
