  62
        -98.94124970
 C         -2.2277435304       -0.9381430814       -0.0866207665
 C         -2.9320908279       -0.4196418669        1.0320038596
 C         -3.7616118550        0.7648906984        0.7910371783
 C         -3.7903839376        1.3173825796       -0.4348017937
 C         -4.5628895857        2.5439535995       -0.8380547530
 C         -6.0303044767        2.2698287639       -1.1952771254
 C         -6.9396406963        1.9480036731       -0.0087023300
 H         -6.8270668169        2.7201083968        0.7529667056
 H         -7.9681913726        1.9956116709       -0.3717344216
 C         -6.7000150642        0.5664789133        0.6161606935
 H         -6.1310499505       -0.0541221006       -0.0799587837
 H         -7.6587019148        0.0688888977        0.7784128614
 C         -5.9718586257        0.5960426080        1.9600192301
 H         -5.8228786500       -0.4344192650        2.2921928017
 H         -6.5923698867        1.1029891884        2.7021661770
 C         -4.6002898032        1.2827887451        1.9202214950
 H         -4.7217325352        2.3628380189        1.8383371726
 H         -4.0759170265        1.0590452775        2.8524300087
 H         -6.0665954635        1.4494876631       -1.9158243706
 H         -6.4165916899        3.1639509417       -1.6900076130
 H         -4.0629161078        2.9496683653       -1.7204191367
 H         -4.5129332518        3.2855346825       -0.0400444179
 O         -3.0765551368        0.8141015691       -1.4747478967
 C         -2.2917611793       -0.3260601391       -1.3384591910
 O         -1.7213575783       -0.6600639793       -2.3949314344
 O         -2.8723926507       -0.9324420377        2.1810364877
 C         -1.3937926226       -2.1850327594        0.1569197737
 C          0.0384680391       -1.8196515517        0.4520018380
 C          0.6607661928       -2.2383273791        1.6217015189
 C          1.9687700477       -1.8743853373        1.8921635868
 C          2.6819353787       -1.0906339488        1.0029279700
 C          2.0666193545       -0.6614289839       -0.1659437455
 C          0.7559962982       -1.0268366199       -0.4339464018
 H          0.2804794090       -0.6878084355       -1.3429881942
 N          2.7834085058        0.1334749193       -1.0812109346
 S          3.4612241825        1.5531236301       -0.4876678032
 O          2.7175231985        2.0605113001        0.6431988282
 O          3.5745555832        2.4320550499       -1.6311423140
 C          5.0930395002        1.0565034866        0.0237928872
 C          5.5060117745        1.2747726162        1.3234738605
 C          6.7833833991        0.8839527924        1.6946689137
 C          7.6198469854        0.2856685260        0.7647672756
 C          7.1903920316        0.0757109194       -0.5373843656
 C          5.9155141023        0.4653466609       -0.9154191020
 H          5.5436569471        0.3250846679       -1.9166546688
 H          7.8436643072       -0.3896553704       -1.2577702174
 H          8.6126539521       -0.0184604766        1.0565578755
 H          7.1190430593        1.0466550169        2.7062322756
 H          4.8180693005        1.7378006148        2.0129587896
 H          2.2609499718        0.3264862690       -1.9246918730
 H          3.7002394853       -0.8032986888        1.2081246207
 H          2.4385028628       -2.2043045775        2.8060456305
 H          0.1059450593       -2.8373103436        2.3288561002
 H         -1.8165771159       -2.6215342745        1.0755835716
 C         -1.5364273319       -3.2256389177       -0.9461264200
 C         -0.4244712795       -3.6314499877       -1.8621602856
 C         -0.8874633711       -4.5695376060       -0.7909510405
 H         -1.4437517546       -5.4502269697       -1.0735731423
 H         -0.2395273681       -4.7080405936        0.0614805134
 H         -0.6793732457       -3.8440859440       -2.8892870913
 H          0.5375816124       -3.1587263379       -1.7440281290
 H         -2.5305288609       -3.2144765971       -1.3820660692
