  62
        -98.94218841
 C          1.6213873880        1.4675174079        0.2762441533
 C          1.3495394417        0.3626345034       -0.5625943876
 C          2.0176911648       -0.8956613197       -0.2112902743
 C          2.7957387167       -0.9504866539        0.8841702118
 C          3.4848069103       -2.1684421409        1.4412315601
 C          4.5825446381       -2.8014907954        0.5646364716
 C          4.0933160540       -3.9424238301       -0.3358945726
 H          3.1899231185       -4.3697400385        0.1013947393
 H          4.8453594411       -4.7340813345       -0.3394362865
 C          3.8275124057       -3.5696452763       -1.7972167131
 H          3.2604952183       -4.3846995485       -2.2518343815
 H          4.7809898957       -3.4964199269       -2.3251667758
 C          3.0767020805       -2.2573702463       -2.0226538982
 H          2.7824351580       -2.2099293295       -3.0727819458
 H          3.7507394107       -1.4148927216       -1.8509707441
 C          1.8327154306       -2.0654077906       -1.1331860147
 H          1.6167614988       -2.9677426814       -0.5623135534
 H          0.9617798301       -1.8392487696       -1.7517031327
 H          5.3349085914       -3.2034567122        1.2451515093
 H          5.0653142294       -2.0255234301       -0.0287652185
 H          3.9260834838       -1.8438320640        2.3862147566
 H          2.7230614101       -2.9173772170        1.6725241021
 O          3.0182616746        0.1335662265        1.6782882066
 C          2.4376123626        1.3591689911        1.3997524065
 O          2.7184708381        2.2620065077        2.2165215080
 H         -0.5130431572        1.2270410019        1.6054576179
 C         -1.1333966142        1.7403188545        0.8847889601
 C         -0.5547025269        2.6073576298       -0.0332675403
 C         -1.3828886130        3.2617732419       -0.9370447643
 C         -2.7474058996        3.0279793224       -0.9360707297
 C         -3.3108430485        2.1233411819       -0.0546962246
 C         -2.4916662456        1.4720004443        0.8598076092
 N         -3.0060219624        0.5205645705        1.7668685941
 S         -2.4651966383       -1.0575441976        1.5890631450
 O         -3.2029014834       -1.8176742770        2.5762986674
 O         -1.0295563546       -1.1051293542        1.6905723437
 C         -3.0148740180       -1.5251524840       -0.0430166367
 C         -4.1951283386       -2.2349550020       -0.1605354556
 C         -4.6731500589       -2.5408780833       -1.4240368238
 C         -3.9713663802       -2.1234077582       -2.5451799277
 C         -2.7918520127       -1.4083152818       -2.4093544806
 C         -2.3037623186       -1.1016689558       -1.1477492440
 H         -1.3850870367       -0.5489657777       -1.0233335428
 H         -2.2400022006       -1.0786934316       -3.2750990034
 H         -4.3442062370       -2.3565699397       -3.5300926107
 H         -5.5894709439       -3.0989089060       -1.5303024041
 H         -4.7040814677       -2.5395544728        0.7397896449
 H         -4.0161401529        0.5150130528        1.8172749271
 H         -4.3709244172        1.9193994181       -0.0720572128
 H         -3.3775301791        3.5431334287       -1.6447496609
 H         -0.9577368050        3.9515612720       -1.6477148907
 C          0.9429615228        2.7981184814        0.0073821943
 H          1.1867634834        3.4450483587        0.8633142986
 C          1.4994892659        3.4246201810       -1.2554464987
 C          1.5889230344        4.9144600107       -1.3892745517
 C          2.8337755563        4.1033615214       -1.1955583472
 H          3.5109019724        3.9856461741       -2.0282034690
 H          3.3264841329        4.1382602227       -0.2344190863
 H          1.2433922249        5.5134708004       -0.5602620761
 H          1.4153606950        5.3569318314       -2.3586277015
 H          1.2742699798        2.8409773565       -2.1406577990
 O          0.5732305374        0.4217588075       -1.5530025773
