  62
        -98.93881173
 C          1.6967812257        0.7151003798        0.9138717476
 C          2.1583682781       -0.0212238932       -0.2062792966
 C          2.1355364938       -1.4867957651       -0.0738941851
 C          1.6293044048       -2.0421135813        1.0401043371
 C          1.3891173813       -3.5098007790        1.2508989837
 C          0.1209024731       -3.9364318629        0.4822013264
 C          0.3755845149       -4.9334374161       -0.6474756104
 H          0.5754065370       -5.9184518505       -0.2191610461
 H         -0.5465455688       -5.0034025678       -1.2289198905
 C          1.5316177563       -4.5824736989       -1.5892710381
 H          1.4131295079       -5.1985272280       -2.4833377297
 H          2.4787222891       -4.8751774942       -1.1322425997
 C          1.6270979664       -3.1111803449       -2.0152016791
 H          1.9218763582       -3.0799891417       -3.0666893669
 H          0.6561237910       -2.6182531120       -1.9441206196
 C          2.6657200463       -2.2867699154       -1.2302496749
 H          3.4715180291       -2.9416346244       -0.8854658610
 H          3.1035864376       -1.5475432393       -1.9075421037
 H         -0.3500368151       -3.0430700385        0.0641377537
 H         -0.5970969919       -4.3789172519        1.1754115771
 H          2.2519681983       -4.0789163813        0.9119494857
 H          1.2596414288       -3.6731370159        2.3212999880
 O          1.1752233771       -1.3062610105        2.0879374755
 C          1.1793737062        0.0799527839        2.0436271508
 O          0.6918606993        0.6217545796        3.0561470026
 H         -0.7712292819        1.1869514213        0.1783058155
 C         -0.4287556029        1.8615559969       -0.5929244324
 C          0.7669802114        2.5449835316       -0.4056039846
 C          1.1948054456        3.4191476059       -1.3936117580
 C          0.4529382013        3.5699799854       -2.5537115264
 C         -0.7037493197        2.8413866046       -2.7614427235
 C         -1.1442819283        1.9692572050       -1.7710941022
 N         -2.3092372737        1.2047318104       -1.9313165229
 S         -2.4299609885       -0.3052802969       -1.2189861468
 O         -1.1687143756       -1.0065935848       -1.1813520544
 O         -3.4908774474       -0.9579018831       -1.9591324426
 C         -3.0124876615        0.0403073407        0.4265161364
 C         -4.1049349106        0.8731295459        0.5692748801
 C         -4.5755885426        1.1466814140        1.8430404873
 C         -3.9502985834        0.5858004498        2.9469043198
 C         -2.8589863655       -0.2536505809        2.7871315682
 C         -2.3863764969       -0.5325922918        1.5147534591
 H         -1.5294365237       -1.1695099267        1.3561568079
 H         -2.3593811902       -0.6815544167        3.6415364853
 H         -4.3120777409        0.8041078723        3.9392977979
 H         -5.4244724298        1.7984889020        1.9728290131
 H         -4.5619235855        1.2894920930       -0.3128206951
 H         -2.7169004822        1.2260860087       -2.8543266926
 H         -1.2567207720        2.9345831247       -3.6837558343
 H          0.7970987790        4.2463551495       -3.3215950657
 H          2.1218551788        3.9552249639       -1.2729915920
 C          1.5278932021        2.2272397382        0.8587672678
 H          0.8720498974        2.4640686159        1.7133570252
 C          2.7935454739        3.0451136307        1.0515704695
 C          3.9555136653        2.4899230547        1.8191585603
 C          4.0793650644        2.7381738414        0.3473032143
 H          4.6905040433        3.5670725008        0.0203246395
 H          4.0924578606        1.8930209551       -0.3213727458
 H          3.8826404436        1.4667372259        2.1592644414
 H          4.4810669407        3.1417871830        2.5008930526
 H          2.5705351401        4.0951712665        1.2155077286
 O          2.5698614006        0.5058267948       -1.2720638846
