  62
        -98.94261870
 C         -1.4729535416       -1.4436162282        0.2896583331
 C         -1.9654547853       -0.9536487500       -0.9449355864
 C         -2.8811691839        0.1949015719       -0.8554539081
 C         -3.2072640871        0.6915268444        0.3516031763
 C         -4.0790006075        1.8922625657        0.5774311091
 C         -3.2449250880        3.1788791595        0.6484679604
 C         -2.2385727101        3.3257638886       -0.4930094254
 H         -1.7234469322        4.2788375141       -0.3549104522
 H         -1.4851489150        2.5385125692       -0.4088275858
 C         -2.8625572321        3.2857141008       -1.8953068466
 H         -3.9339491387        3.4787182809       -1.8297224259
 H         -2.4257217776        4.0861614210       -2.4963929088
 C         -2.6318178534        1.9804141332       -2.6592540244
 H         -2.9262770472        2.1397232758       -3.7000883190
 H         -1.5656843830        1.7372661402       -2.6579389834
 C         -3.4053487011        0.7591643857       -2.1459658544
 H         -4.4655506380        1.0051286653       -2.0594817998
 H         -3.2968916586       -0.0376609745       -2.8878886846
 H         -2.6971418542        3.1807166643        1.5929427395
 H         -3.9249177252        4.0325621337        0.6473674280
 H         -4.8079739976        1.9623895871       -0.2275312296
 H         -4.6081085157        1.7602232884        1.5225879362
 O         -2.7370261144        0.1764607038        1.5151420920
 C         -1.8606659824       -0.8964245114        1.5140642182
 O         -1.5058100123       -1.2709186535        2.6485442600
 H          0.4324939884       -0.2235937939       -0.6643784844
 C          1.1810593034       -1.0048494401       -0.6786655777
 C          0.8607561549       -2.2741663123       -0.2233969254
 C          1.8540862257       -3.2499723496       -0.2526353094
 C          3.1250335109       -2.9593689717       -0.7134550213
 C          3.4375454667       -1.6888365455       -1.1662913862
 C          2.4517732401       -0.7153126996       -1.1578668951
 N          2.7772163816        0.5941057271       -1.5973101343
 S          3.5242990699        1.5221104630       -0.4176679352
 O          3.7046885041        2.8360596319       -0.9901799379
 O          4.7147538758        0.8341728885        0.0086791204
 C          2.3342595699        1.5910623570        0.9085873366
 C          2.2512855149        0.5288748817        1.7877138719
 C          1.2489042920        0.5298590567        2.7444585393
 C          0.3547668436        1.5873387556        2.8073204856
 C          0.4574095458        2.6503685099        1.9235345261
 C          1.4487110319        2.6488855791        0.9553707303
 H          1.5575653824        3.4514282387        0.2430779591
 H         -0.2351328737        3.4750561869        1.9801236877
 H         -0.4328652254        1.5680052162        3.5443311166
 H          1.1462027147       -0.3009228186        3.4236868600
 H          2.9680825563       -0.2730971647        1.7124597346
 H          1.9748941258        1.1017993336       -1.9443712063
 H          4.4255035145       -1.4340023046       -1.5125736413
 H          3.8822742430       -3.7281494889       -0.7191377046
 H          1.6249783743       -4.2441034309        0.0969357406
 C         -0.5023057523       -2.6035955438        0.3437668381
 H         -0.3661087120       -2.8276198826        1.4122666784
 C         -1.0861175138       -3.8338044195       -0.3322035631
 C         -0.9107477503       -5.1946712212        0.2690870985
 C         -2.2512764594       -4.5268779423        0.3063727308
 H         -3.0402879204       -4.9017694794       -0.3278774929
 H         -2.6000361279       -4.1371142604        1.2521644398
 H         -0.7745484676       -6.0360111957       -0.3933662117
 H         -0.3699920245       -5.2716697200        1.2006588495
 H         -1.0915886384       -3.7522754544       -1.4125159253
 O         -1.6526059209       -1.4317676059       -2.0670081171
