  62
        -98.95211989
 C         -2.3551974166       -0.3575993217        0.0411663781
 C         -1.5172513547        0.2193394993       -0.9409859546
 C         -1.5346551949        1.6851292229       -1.0238179034
 C         -2.3244320438        2.3808949281       -0.1859774045
 C         -2.4540469196        3.8764336849       -0.1698731364
 C         -1.4758013150        4.5284753069        0.8152500695
 C         -0.0309894396        4.0517212698        0.6657409646
 H          0.0419745217        3.0048565796        0.9698368353
 H          0.5743093687        4.6256482337        1.3718226117
 C          0.5501674382        4.2059704309       -0.7465875819
 H          1.5629067413        4.6059540631       -0.6616746629
 H         -0.0384272625        4.9265292638       -1.3166160023
 C          0.6547678840        2.8934040684       -1.5257556696
 H          1.1169762262        2.1382080716       -0.8849254000
 H          1.3174997185        3.0537609452       -2.3807088006
 C         -0.6663124343        2.3306362172       -2.0666550421
 H         -0.4244355505        1.5408810054       -2.7839193886
 H         -1.2133197013        3.1165646372       -2.5925301327
 H         -1.8047659638        4.3040408950        1.8327017489
 H         -1.5194562157        5.6107491484        0.6752487461
 H         -2.2791021941        4.2574976308       -1.1744261360
 H         -3.4739254048        4.1252179299        0.1301934134
 O         -3.1001806665        1.7931183095        0.7615834395
 C         -3.1208778595        0.4160882218        0.9108867950
 O         -3.8562513189        0.0071685705        1.8342133632
 H         -0.4258767105       -0.8567159724        1.6468179110
 C         -0.1218287429       -1.7632591887        1.1437908085
 C         -1.0266352593       -2.4378557148        0.3344091008
 C         -0.6122799115       -3.6097782462       -0.2870120667
 C          0.6824916443       -4.0712943392       -0.1236756830
 C          1.5951465419       -3.3658406164        0.6390288995
 C          1.1868265344       -2.1982958707        1.2731598148
 N          2.0814224969       -1.4289923731        2.0466036196
 S          2.3929850774        0.1335852880        1.5235699768
 O          3.3630614344        0.6554175468        2.4627545807
 O          1.1601643967        0.8665055342        1.4072193235
 C          3.1745273980       -0.0760928902       -0.0671018749
 C          2.4088552365       -0.4063160447       -1.1675200789
 C          3.0480433913       -0.6268705357       -2.3786473174
 C          4.4266483415       -0.5182572370       -2.4695644013
 C          5.1802624748       -0.1868701902       -1.3533262383
 C          4.5505653748        0.0318402855       -0.1393091819
 H          5.0926947730        0.2944547361        0.7548381307
 H          6.2525007330       -0.1000702455       -1.4247885909
 H          4.9151936183       -0.6916257888       -3.4155166516
 H          2.4534547437       -0.8833151144       -3.2407296536
 H          1.3351429882       -0.4814314072       -1.0858226101
 H          2.9598222795       -1.8940523997        2.2325110205
 H          2.6131029633       -3.7101305375        0.7438717763
 H          0.9900354059       -4.9826924472       -0.6131762674
 H         -1.3027361692       -4.1595974239       -0.9054577355
 C         -2.4161207998       -1.8677866151        0.1851033057
 H         -2.9735462614       -2.0650382188        1.1130099117
 C         -3.1822633489       -2.4618058486       -0.9806706647
 C         -4.0022401376       -3.7029476492       -0.7994607160
 C         -4.6780243482       -2.3775740856       -0.9779037501
 H         -5.1855194239       -2.1752938852       -1.9091472416
 H         -5.1438587208       -1.9166491963       -0.1187032521
 H         -4.0222247569       -4.1510988802        0.1824695004
 H         -4.0510238646       -4.4127209598       -1.6115103013
 H         -2.6753962017       -2.3140892897       -1.9275890219
 O         -0.8013220248       -0.4610331207       -1.7230511936
