  62
        -98.93582643
 C          2.3774645880        0.4774724819        0.9070932445
 C          3.4275638484        1.0802052157        0.1695639364
 C          4.7332689522        0.4016966842        0.2445201994
 C          4.8646516127       -0.7124537160        0.9850228555
 C          6.1178981658       -1.5308848403        1.0942729874
 C          6.1533416321       -2.6367890066        0.0301306289
 C          5.8450518416       -2.1436129047       -1.3836325859
 H          5.9294552633       -3.0025160250       -2.0529540943
 H          4.8067709169       -1.8060473181       -1.4242148124
 C          6.7642485351       -1.0177555956       -1.8776564614
 H          7.0726158435       -1.2413876282       -2.9010940647
 H          7.6675815941       -0.9826845234       -1.2676683773
 C          6.1148692405        0.3671363367       -1.9007765229
 H          5.1615597942        0.3157361792       -2.4326222639
 H          6.7676934932        1.0394282020       -2.4638081126
 C          5.8676711168        1.0113814550       -0.5308387814
 H          6.7881391845        0.9941391823        0.0560011271
 H          5.5865234586        2.0547949859       -0.7009395603
 H          7.1407324112       -3.1017218273        0.0485239271
 H          5.4144873105       -3.3962961088        0.2961923464
 H          6.9821416149       -0.8786483856        0.9848368636
 H          6.1429344256       -1.9899029735        2.0840097277
 O          3.8382137879       -1.2539962101        1.6907669593
 C          2.5790812595       -0.6813968890        1.6618053594
 O          1.7300169596       -1.2845616156        2.3504380089
 O          3.3056821743        2.1225949028       -0.5219259211
 C          0.9629328886        1.0308494938        0.9434960284
 C          0.1288484533        0.5049731710       -0.1962890091
 C          0.6031230893        0.4953415440       -1.5044244781
 C         -0.1950023348        0.0333225676       -2.5349259480
 C         -1.4834790748       -0.4062058103       -2.2870273172
 C         -1.9642607583       -0.4063705805       -0.9830395457
 C         -1.1521305067        0.0357054006        0.0522353120
 H         -1.5342981677        0.0134653413        1.0624826372
 N         -3.2609632544       -0.8563198698       -0.6905604550
 S         -4.1116994400       -0.0454641682        0.5242545180
 O         -3.8760012496        1.3765316772        0.4213248275
 O         -3.8009798983       -0.6536148177        1.7936750564
 C         -5.7905083145       -0.4324057540        0.0656391409
 C         -6.5197142115        0.4826243424       -0.6700644981
 C         -7.8139116329        0.1599498848       -1.0471683988
 C         -8.3523518748       -1.0663613691       -0.6874469556
 C         -7.6081810541       -1.9741662920        0.0516837562
 C         -6.3141134283       -1.6576935119        0.4333518806
 H         -5.7016822507       -2.3262756191        1.0157863410
 H         -8.0312671792       -2.9252296197        0.3321307556
 H         -9.3596383439       -1.3150694614       -0.9820161126
 H         -8.3961645534        0.8648512889       -1.6183742540
 H         -6.0627005546        1.4267931588       -0.9192866542
 H         -3.8248126106       -1.0038304478       -1.5164981707
 H         -2.1097182255       -0.7527095638       -3.0950447592
 H          0.1851019906        0.0306048546       -3.5455199628
 H          1.5962192452        0.8671424821       -1.7052689488
 H          0.5226482727        0.6381013662        1.8750211708
 C          0.9151854903        2.5508556040        1.0368738648
 C          0.4892785999        3.4394308619       -0.0885759976
 C         -0.4065582308        3.2591199934        1.0977764799
 H         -0.5191597938        4.0784667206        1.7921151475
 H         -1.3035422736        2.6692112763        0.9688114221
 H          1.0129840507        4.3750684007       -0.2108879892
 H          0.1995351317        2.9792636784       -1.0198630996
 H          1.6997980201        2.9366067646        1.6806232949
