  62
        -98.94420529
 C         -1.8187299961       -0.5998200278       -0.2771857185
 C         -2.9041342457       -1.3101734552        0.2894166410
 C         -4.2387158517       -0.9107345059       -0.1698486838
 C         -4.3632652602        0.0597241075       -1.0935873648
 C         -5.6553137056        0.5612233304       -1.6797743404
 C         -6.3562405477        1.6265552283       -0.8255250934
 C         -7.0091062973        1.1066860827        0.4559178569
 H         -7.6596045126        0.2653322160        0.2150483113
 H         -7.6424758328        1.9086043646        0.8404301049
 C         -6.0150665057        0.6949128341        1.5507855308
 H         -6.3381501069        1.1067259409        2.5095828654
 H         -5.0348479220        1.1250432136        1.3320303352
 C         -5.8638229049       -0.8152624434        1.7339589344
 H         -6.8091544119       -1.2386425118        2.0803425631
 H         -5.1118854516       -0.9932928477        2.5069092747
 C         -5.4277289013       -1.5641876263        0.4677410321
 H         -6.2552255629       -1.6226313116       -0.2388097233
 H         -5.1366059274       -2.5782518982        0.7521471845
 H         -7.1328281301        2.0813318643       -1.4448827774
 H         -5.6320612742        2.4057136374       -0.5761710916
 H         -6.3324463061       -0.2770527290       -1.8462275305
 H         -5.4060795711        1.0044732592       -2.6463025957
 O         -3.2924406350        0.7035782574       -1.6309377574
 C         -1.9983899906        0.4090016254       -1.2232139017
 O         -1.1188484550        1.0997422839       -1.7726405891
 O         -2.7634351748       -2.2298957438        1.1391256582
 C         -0.4078615080       -0.9469471573        0.1613925620
 C          0.2808814485        0.2720801293        0.7213238298
 C         -0.3813209414        1.0361970294        1.6795196211
 C          0.2035877099        2.1709035635        2.2054711386
 C          1.4664693838        2.5624333892        1.7974246493
 C          2.1444775888        1.7971736374        0.8556311694
 C          1.5543615903        0.6544162707        0.3302841196
 H          2.0869910630        0.0908458448       -0.4165631907
 N          3.4378845138        2.1508020339        0.4717374535
 S          4.3522752252        1.3908891482       -0.6820726306
 O          5.5818190245        2.1554139274       -0.7049134975
 O          3.6681130935        1.2705446713       -1.9476851479
 C          4.6800665741       -0.2274523249       -0.0102817414
 C          4.8320013334       -1.2851910630       -0.8844359705
 C          5.1251141258       -2.5416272868       -0.3779901197
 C          5.2591267766       -2.7188108585        0.9900341917
 C          5.1060674470       -1.6465042695        1.8552144552
 C          4.8184150641       -0.3869082615        1.3541254042
 H          4.6938127090        0.4633878001        2.0035660261
 H          5.2094064219       -1.7874546100        2.9191098886
 H          5.4827670371       -3.6980393061        1.3828632771
 H          5.2446942880       -3.3761248696       -1.0504663971
 H          4.7081876068       -1.1043564770       -1.9407201879
 H          3.7966544535        3.0355728185        0.7903843782
 H          1.9219711532        3.4540552849        2.1996795974
 H         -0.3275364314        2.7593942795        2.9385267660
 H         -1.3701725833        0.7330500379        1.9959425237
 H         -0.5284603932       -1.6781367280        0.9750323449
 C          0.3473545743       -1.6062872704       -0.9730181032
 C          1.4334754173       -2.5971133509       -0.6822231659
 C          0.1229290152       -3.0637198776       -1.2390177572
 H          0.0856840926       -3.4008429343       -2.2640532508
 H         -0.5576061410       -3.5858694638       -0.5824937694
 H          2.2993665192       -2.6116662595       -1.3264114019
 H          1.6524824593       -2.8104515731        0.3529708757
 H          0.4668712180       -0.9523176730       -1.8307162970
