  62
        -98.94046351
 C          1.8388028574        1.1198929896        0.1855454562
 C          2.1491102374        0.0630209328       -0.7070221147
 C          3.5836102515       -0.2075265573       -0.9057876126
 C          4.4986848282        0.5415985793       -0.2667511132
 C          5.9835393841        0.3393243453       -0.3431048335
 C          6.4727817152       -0.5994925092        0.7685495354
 C          5.6649239594       -1.8921035317        0.8860951558
 H          6.1201397416       -2.4887920839        1.6795931811
 H          4.6492382730       -1.6513526028        1.2087266659
 C          5.6018324415       -2.7213677430       -0.4041922307
 H          5.7758440503       -3.7702405916       -0.1547439542
 H          6.3990578155       -2.4135441258       -1.0818804759
 C          4.2603642469       -2.6554550350       -1.1369261074
 H          3.4488397540       -2.8736737262       -0.4376779497
 H          4.2519717317       -3.4380112606       -1.9005048041
 C          3.9474720467       -1.3280084914       -1.8388625450
 H          4.7859958354       -1.0426485242       -2.4775265946
 H          3.0704732547       -1.4881605486       -2.4730601501
 H          7.5210197708       -0.8394020527        0.5813654767
 H          6.4105451945       -0.0694800145        1.7218166460
 H          6.2404652032       -0.0699147623       -1.3182011884
 H          6.4696102752        1.3095012520       -0.2266696047
 O          4.1643511649        1.5523980947        0.5748049010
 C          2.8382952168        1.8473237573        0.8405770749
 O          2.6780204519        2.7674142505        1.6666294951
 H         -1.3446609855        0.0834897409       -1.0114306574
 C         -1.2470666973       -0.3300963102       -0.0196682868
 C         -0.3834409012        0.2624021601        0.8879763164
 C         -0.2522784665       -0.3086937043        2.1495459151
 C         -0.9729675986       -1.4373675468        2.4968134827
 C         -1.8365674478       -2.0242989353        1.5880569996
 C         -1.9587865007       -1.4708479919        0.3221786484
 N         -2.8646921420       -2.0539141020       -0.5995293527
 S         -4.4636214414       -1.6684111179       -0.2801218689
 O         -4.8435410288       -2.2760059774        0.9692733327
 O         -5.2186238607       -2.0666683483       -1.4463871729
 C         -4.4562640290        0.1087673672       -0.1202441374
 C         -4.1689313271        0.6674824433        1.1091705287
 C         -4.0489705471        2.0443977508        1.2068487402
 C         -4.2138824883        2.8339919780        0.0789803625
 C         -4.5055623950        2.2577212483       -1.1481396534
 C         -4.6207460230        0.8809180761       -1.2528175128
 H         -4.8449216193        0.3924953497       -2.1877863766
 H         -4.6349120880        2.8758344657       -2.0221489942
 H         -4.1130976744        3.9053455529        0.1573595620
 H         -3.8180264186        2.4950466609        2.1587918957
 H         -4.0471704603        0.0199076296        1.9620533270
 H         -2.6494789839       -1.8099475330       -1.5567136682
 H         -2.4218339070       -2.8931948659        1.8420290518
 H         -0.8626333076       -1.8634603500        3.4825646247
 H          0.4254753932        0.1451240731        2.8598707321
 C          0.4088366039        1.4962783654        0.5405773807
 H          0.4992054885        2.1070569006        1.4526546029
 C         -0.2996897659        2.3627014058       -0.4913070528
 C          0.4299061161        3.4785158097       -1.1756625033
 C         -0.0203921992        2.2848773190       -1.9606902140
 H         -0.8501322310        2.4051192465       -2.6421833300
 H          0.7229375201        1.5810838353       -2.3002015670
 H          1.4844029107        3.5836114169       -0.9648190475
 H         -0.0823275018        4.4171085696       -1.3221376603
 H         -1.3286814128        2.5598781204       -0.2045361130
 O          1.2937066203       -0.6253761796       -1.3203443056
