  62
        -98.94148175
 C         -1.6207950094       -1.1718882697        0.1638604198
 C         -1.6706833894        0.1753124102        0.6048954901
 C         -2.7609643996        1.0008949403        0.0720009005
 C         -3.6274098097        0.4542644404       -0.8002286994
 C         -4.8147581599        1.1593392405       -1.3877827390
 C         -6.0684389497        0.9472693902       -0.5278373988
 C         -5.8492163394        1.2208138699        0.9601280612
 H         -6.8068856593        1.0711069098        1.4634249314
 H         -5.1565103493        0.4773949199        1.3614751609
 C         -5.3201246294        2.6269981699        1.2752598714
 H         -5.4904383296        3.2866119001        0.4236530716
 H         -5.8848200692        3.0329708997        2.1172003816
 C         -3.8419701393        2.6755460599        1.6665909911
 H         -3.6315321092        3.6666548598        2.0775304913
 H         -3.6484553291        1.9470470697        2.4582245409
 C         -2.8401984795        2.4299583901        0.5310795808
 H         -1.8453150594        2.6791359001        0.9126448207
 H         -3.0662537497        3.0926793203       -0.3070374890
 H         -6.8605650198        1.5961395903       -0.9058227385
 H         -6.3952153197       -0.0889946098       -0.6408744689
 H         -4.9965914101        0.7542990907       -2.3846153191
 H         -4.5951006200        2.2218668005       -1.4716257788
 O         -3.5409328398       -0.8331683395       -1.2141350797
 C         -2.5408055696       -1.6828809396       -0.7530780601
 O         -2.5995551497       -2.8276971395       -1.2351073304
 O         -0.8367173493        0.6636704800        1.4148939100
 C         -0.4882989493       -2.0190937398        0.7174717193
 C          0.7202063805       -1.8921341895       -0.1743619609
 C          0.6509021602       -2.2018966693       -1.5302029109
 C          1.7640831200       -2.0592345890       -2.3371145912
 C          2.9560227701       -1.5832120891       -1.8172515113
 C          3.0316094704       -1.2592171694       -0.4685785313
 C          1.9189971406       -1.4288651496        0.3455878789
 H          1.9941353508       -1.1703104698        1.3909433290
 N          4.2241495705       -0.7656549694        0.0896372186
 S          4.1689508207        0.6434232004        0.9977524889
 O          5.5518098807        1.0547246104        1.1056396987
 O          3.4813932309        0.4007809001        2.2385169790
 C          3.2781519304        1.7955283905       -0.0317604507
 C          1.9020703504        1.8762487805        0.0360354497
 C          1.2427332302        2.7235377606       -0.8418146300
 C          1.9599530799        3.4722378209       -1.7609977800
 C          3.3432517299        3.3836999409       -1.8110634603
 C          4.0087255902        2.5329931708       -0.9446756207
 H          5.0826259202        2.4373284908       -0.9446752609
 H          3.9010297997        3.9708691511       -2.5226981903
 H          1.4373344498        4.1291586410       -2.4383495297
 H          0.1663284402        2.7831604406       -0.7961724198
 H          1.3516975806        1.2964515803        0.7607004097
 H          4.9935802004       -0.7224615993       -0.5639541916
 H          3.8214493600       -1.4628130489       -2.4510544715
 H          1.7010696098       -2.3108979788       -3.3849704012
 H         -0.2839993698       -2.5561013492       -1.9382403008
 H         -0.2310399391       -1.5496069700        1.6809293794
 C         -0.8825454692       -3.4593912099        1.0103482691
 C         -0.3007189893       -4.6428900097        0.3026962387
 C          0.0866036610       -4.3582243400        1.7206581187
 H         -0.2809704688       -5.0049120402        2.5029903987
 H          1.0786105311       -3.9693643800        1.8992423486
 H         -0.9591505393       -5.4736366497        0.0996879087
 H          0.4335228106       -4.4721042995       -0.4682984414
 H         -1.9242625591       -3.5441876300        1.3020013493
