  62
        -98.94752914
 C          1.3295833908        1.6321092395       -0.4994861581
 C          1.1928282137        0.3221993193       -1.0236377197
 C          2.3822924188       -0.5386472000       -0.9195353580
 C          3.5084593343       -0.0578904532       -0.3651006294
 C          4.7790734667       -0.8339466681       -0.1743575076
 C          4.8236577400       -1.5096618882        1.2023855526
 C          3.5599852277       -2.2992758288        1.5443006615
 H          3.7230278205       -2.7713788448        2.5159619416
 H          2.7203424317       -1.6095123069        1.6638716173
 C          3.1816558399       -3.3706455145        0.5126619256
 H          4.0430253122       -3.6056922495       -0.1144038456
 H          2.9068181415       -4.2840748519        1.0447361001
 C          1.9900877669       -2.9962603829       -0.3712445617
 H          1.6500492546       -3.9032657253       -0.8803374358
 H          1.1728303586       -2.6410997691        0.2632325645
 C          2.2637324572       -1.9395894320       -1.4499407862
 H          1.4081890817       -1.9289306098       -2.1316109889
 H          3.1551287915       -2.2153605681       -2.0179384916
 H          5.6885172576       -2.1752588733        1.2324146017
 H          4.9611811739       -0.7384339181        1.9638247458
 H          5.6180249454       -0.1402900866       -0.2547185409
 H          4.8623000730       -1.5818728337       -0.9604393008
 O          3.6073091676        1.2056486435        0.1209317431
 C          2.5240710015        2.0653155176        0.0840713269
 O          2.7499695849        3.1871153446        0.5835172976
 O          0.1504410904       -0.1268583083       -1.5693899506
 C          0.2051417940        2.6584724166       -0.4923058827
 C         -0.7203908050        2.4105030906        0.6743243883
 C         -0.9100779219        3.3690811863        1.6627113043
 C         -1.7447684501        3.1130812630        2.7365062970
 C         -2.3905818038        1.8951478908        2.8527850580
 C         -2.2054597839        0.9304411668        1.8686504489
 C         -1.3908347947        1.2008296623        0.7802070152
 H         -1.2451645259        0.4468483866        0.0252158767
 N         -2.8507847070       -0.3119413233        1.9368365251
 S         -2.0906872406       -1.6800563356        1.3377761282
 O         -2.7838663345       -2.7801933517        1.9810969994
 O         -0.6641157246       -1.6384040014        1.5638514795
 C         -2.4837319825       -1.7203130228       -0.3980820884
 C         -3.5256875910       -0.9631879952       -0.8930649154
 C         -3.8304644274       -1.0481013952       -2.2421469905
 C         -3.0982085747       -1.8869419566       -3.0671362351
 C         -2.0612609028       -2.6473318556       -2.5515291934
 C         -1.7508306080       -2.5663316532       -1.2041676726
 H         -0.9439055938       -3.1325429474       -0.7683278318
 H         -1.4879736434       -3.2970266369       -3.1936601063
 H         -3.3330471709       -1.9451385487       -4.1185099856
 H         -4.6346497384       -0.4537158477       -2.6458600212
 H         -4.0699113018       -0.3100121970       -0.2311290922
 H         -3.3527441136       -0.4988438535        2.7921183309
 H         -3.0281268372        1.6886309390        3.6990452507
 H         -1.8839851169        3.8646435118        3.4989090257
 H         -0.3841239122        4.3102247697        1.5948331873
 H          0.6917524514        3.6306606899       -0.3344899591
 C         -0.5713713831        2.7153059441       -1.7937249734
 C         -1.3329888696        3.9608626869       -2.1291426992
 C         -0.0926335916        3.6110643270       -2.8944226030
 H         -0.1905224538        3.2700936970       -3.9139386068
 H          0.8002748135        4.1921280050       -2.7131701208
 H         -2.2867076699        3.8625213491       -2.6239412542
 H         -1.2812080231        4.7830079797       -1.4313832254
 H         -1.0038878830        1.7653155712       -2.0775634201
