  62
        -98.94310175
 C         -2.5587485006       -0.1834222931        0.5338666695
 C         -2.2061763665        0.3573693872       -0.7281808779
 C         -1.9936510372        1.8128195684       -0.7671816932
 C         -2.0978253119        2.5288021563        0.3656600725
 C         -1.8797061118        4.0100111725        0.4749569868
 C         -0.4244646281        4.3434940213        0.8279071930
 C          0.6073098894        3.6475688203       -0.0602817645
 H          1.5925128946        4.0100525651        0.2435482597
 H          0.5938835928        2.5722834068        0.1364931929
 C          0.4165913480        3.8834610691       -1.5650893687
 H          1.3916580073        4.0929331618       -2.0095953652
 H         -0.2114408772        4.7606873318       -1.7287280361
 C         -0.1674392853        2.6856298614       -2.3170146840
 H          0.3794503807        1.7825646451       -2.0351677527
 H         -0.0175809901        2.8469673048       -3.3882571112
 C         -1.6636199036        2.4267217294       -2.0983895450
 H         -2.2258007541        3.3520525246       -2.2460633852
 H         -1.9882423768        1.7016193133       -2.8505641516
 H         -0.2947446591        5.4256035383        0.7586250076
 H         -0.2405306649        4.0431935483        1.8623791750
 H         -2.1522347627        4.4799924055       -0.4681826122
 H         -2.5306594353        4.3927690299        1.2633958667
 O         -2.3949213247        1.9698535767        1.5682575449
 C         -2.6083485279        0.6066076753        1.6836169312
 O         -2.8384762235        0.2236209372        2.8501164737
 H         -0.1954488871       -1.2433019162        1.1405153094
 C         -0.3371622151       -2.0323834387        0.4143438047
 C         -1.6266578550       -2.4174212878        0.0686117808
 C         -1.7889532817       -3.4361592648       -0.8599422362
 C         -0.6821143053       -4.0304001077       -1.4421807025
 C          0.5978319056       -3.6135833881       -1.1276649775
 C          0.7697937423       -2.6003475481       -0.1907336240
 N          2.0536860915       -2.1466694184        0.1676950313
 S          2.2156123915       -0.4870015807        0.4534940541
 O          1.8461658547       -0.2137385409        1.8216745967
 O          1.5233622986        0.2666890747       -0.5641794095
 C          3.9796360062       -0.2976602543        0.2724884232
 C          4.4914616845        0.3135011283       -0.8558573102
 C          5.8665845384        0.4294358256       -0.9895786089
 C          6.7008195422       -0.0681978551       -0.0001527000
 C          6.1718129908       -0.6787157513        1.1277235119
 C          4.7983681424       -0.7956761538        1.2688292897
 H          4.3406489355       -1.2520110584        2.1310266256
 H          6.8232706710       -1.0621004187        1.8963096361
 H          7.7701732900        0.0224952005       -0.1070819499
 H          6.2799858167        0.9065235922       -1.8634528729
 H          3.8026187075        0.6886913185       -1.5957356164
 H          2.7697851589       -2.4770562275       -0.4657570842
 H          1.4569629933       -4.0605063204       -1.6047603390
 H         -0.8204153704       -4.8163128542       -2.1693360109
 H         -2.7795420406       -3.7449808593       -1.1508779258
 C         -2.7618243235       -1.6773474026        0.7329192215
 H         -2.6640670520       -1.8295269235        1.8216539213
 C         -4.1404604314       -2.1915237689        0.3477177494
 C         -5.3321288596       -1.2821323771        0.3556418255
 C         -4.8076668843       -1.8186180467       -0.9405957339
 H         -5.3880082152       -2.5728251758       -1.4519022517
 H         -4.2770195056       -1.1508804523       -1.5998966352
 H         -5.1621511077       -0.2399868554        0.5857196996
 H         -6.2672220510       -1.6664373700        0.7347187415
 H         -4.3089359579       -3.2014261892        0.7093568320
 O         -2.0919258824       -0.3254596016       -1.7786674480
