  62
        -98.94862682
 C         -1.4890675974       -0.8866103051        0.8960940771
 C         -2.4154303399       -0.2967648775        0.0035082774
 C         -2.6754793174        1.1341609149        0.2083676737
 C         -1.9782723082        1.8162197402        1.1337933266
 C         -2.1166835630        3.2807869010        1.4508456376
 C         -1.3473197181        4.2004947066        0.4927942323
 C         -1.9732880995        4.3683050888       -0.8921877187
 H         -3.0307391446        4.6151912883       -0.7877544125
 H         -1.4827389443        5.2231570158       -1.3624078218
 C         -1.8122469480        3.1488880582       -1.8105250148
 H         -1.5113731775        3.4841255312       -2.8066202235
 H         -1.0054574467        2.5110186038       -1.4418010471
 C         -3.0760136753        2.3064656572       -1.9837420538
 H         -2.8217540814        1.4383152374       -2.5972583834
 H         -3.8336477539        2.8873922680       -2.5162339158
 C         -3.6896573758        1.7975041589       -0.6742876582
 H         -4.1713180805        2.6187162203       -0.1428680117
 H         -4.4472193919        1.0499758152       -0.9244977868
 H         -1.2855435637        5.1848568809        0.9634198258
 H         -0.3291105951        3.8198279492        0.3772925859
 H         -3.1713760693        3.5585317732        1.4532902177
 H         -1.7188527240        3.4197205014        2.4586059195
 O         -1.0485732490        1.2258386049        1.9306186367
 C         -0.7822146595       -0.1296410489        1.8307157378
 O          0.0918671144       -0.5394110650        2.6223691671
 H          1.0316868984       -0.9757202678        0.1060929393
 C          0.7644639544       -1.6569400788       -0.6885224555
 C         -0.3238384652       -2.5038866913       -0.5168045311
 C         -0.6411033518       -3.3925411873       -1.5342239142
 C          0.0988194796       -3.4006858233       -2.7054778525
 C          1.1445477686       -2.5157875471       -2.8944982905
 C          1.4764777255       -1.6306256429       -1.8741031747
 N          2.5253795409       -0.7086443224       -2.0087001800
 S          2.3723087232        0.8024469654       -1.2994312544
 O          1.0011104560        1.2540929512       -1.2727727320
 O          3.2944315051        1.6383342325       -2.0429914296
 C          3.0033534180        0.6035385146        0.3515168788
 C          2.4268756191        1.3251474405        1.3765247048
 C          2.9461426754        1.2093596887        2.6554657938
 C          4.0314814468        0.3791928745        2.8842258419
 C          4.6034164906       -0.3360075359        1.8428465277
 C          4.0891938582       -0.2231106496        0.5616199863
 H          4.5040468951       -0.7669341921       -0.2706342949
 H          5.4457858947       -0.9833329608        2.0269696960
 H          4.4299436007        0.2866921500        3.8822754144
 H          2.4910817154        1.7570761215        3.4648109428
 H          1.5696042014        1.9448874975        1.1632699478
 H          2.9394357711       -0.6558278166       -2.9279687117
 H          1.6967989138       -2.5030681969       -3.8218067184
 H         -0.1581209513       -4.0930489605       -3.4929103148
 H         -1.4739577678       -4.0664416485       -1.4188787158
 C         -1.1063196957       -2.3532701498        0.7660830590
 H         -0.4247580422       -2.5620729254        1.6035891989
 C         -2.3087422637       -3.2636588036        0.8720285813
 C         -2.1293752098       -4.6859501844        1.3084699055
 C         -2.7744003082       -3.6952697451        2.2290824100
 H         -3.8362681276       -3.7705765834        2.4087654188
 H         -2.2113009521       -3.3464467649        3.0826174942
 H         -1.1276360077       -5.0144958650        1.5405279701
 H         -2.7503718348       -5.4457338657        0.8587043613
 H         -3.0677090289       -3.0457307944        0.1305920848
 O         -3.0123724970       -0.9259422925       -0.9094385342
