  62
        -98.93941629
 C          2.2504384302        0.8133066101       -0.0355514395
 C          3.2756724002        0.6930306500        0.9334895905
 C          4.1885138201       -0.4548681200        0.7987189505
 C          3.9967858001       -1.3343052000       -0.2022050595
 C          4.7285278200       -2.6104866900       -0.5629516895
 C          6.0825842600       -2.9381138801        0.0610820005
 C          7.2237815900       -2.0162333202       -0.3680319495
 H          8.1100375100       -2.2755121503        0.2151190305
 H          7.4491397800       -2.2102417702       -1.4197536995
 C          6.9535889601       -0.5206568102       -0.2239668695
 H          7.8401075002        0.0142981898       -0.5752498494
 H          6.1258436202       -0.2332048901       -0.8755291595
 C          6.6561178801       -0.0437630202        1.1961089105
 H          7.4611064901       -0.3547067803        1.8646940805
 H          6.6386017302        1.0492351698        1.1789190306
 C          5.3174099401       -0.5181780501        1.7871943405
 H          5.0486059401        0.1606079099        2.6017478205
 H          5.4026695500       -1.5163413802        2.2097765405
 H          6.0006937400       -2.9670127002        1.1435478105
 H          6.3370878899       -3.9507401402       -0.2636175796
 H          4.8306249300       -2.5968026500       -1.6528769795
 H          4.0330971300       -3.4249004600       -0.3308696096
 O          2.9728339801       -1.1943023599       -1.0947098195
 C          2.0866157002       -0.1304127799       -1.0473598995
 O          1.2295567502       -0.1471904298       -1.9525901395
 O          3.4233136502        1.5124808500        1.8787841605
 C          1.2968015503        1.9920118401        0.0719870005
 C         -0.0643402398        1.4688626502        0.4571697405
 C         -0.3280108098        1.1810641902        1.7937819805
 C         -1.5430291298        0.6431142503        2.1730504304
 C         -2.5177726398        0.3715236603        1.2280948604
 C         -2.2565974698        0.6358798104       -0.1089616496
 C         -1.0431918398        1.1976103003       -0.4854433795
 H         -0.8500681797        1.3862617703       -1.5295293695
 N         -3.2336402398        0.3553031004       -1.0790859096
 S         -4.0331761899       -1.1184107595       -1.0090732796
 O         -3.2205963900       -2.1479732696       -0.4030407696
 O         -4.4868034799       -1.3667554995       -2.3604235496
 C         -5.4492517399       -0.7732659595        0.0165748904
 C         -5.7314972399       -1.5844301495        1.0981323803
 C         -6.8442087399       -1.3027003394        1.8756738103
 C         -7.6514321999       -0.2210637294        1.5588286503
 C         -7.3560482298        0.5823189606        0.4674713604
 C         -6.2460175398        0.3054049706       -0.3143190896
 H         -5.9832443198        0.9030585506       -1.1710094896
 H         -7.9859895998        1.4227265007        0.2242233904
 H         -8.5156783399       -0.0029890493        2.1661480703
 H         -7.0751001100       -1.9266346494        2.7241713103
 H         -5.0713299900       -2.4105568795        1.3103299803
 H         -2.9262047098        0.5475639004       -2.0219031396
 H         -3.4633204899       -0.0585292496        1.5150720604
 H         -1.7349103099        0.4296964902        3.2136160604
 H          0.4405426602        1.3733725501        2.5293744605
 H          1.6777997503        2.5962521901        0.9061730605
 C          1.2977412103        2.8392614802       -1.1829649195
 C          0.7031715904        4.2142302602       -1.1393873394
 C          2.1874071904        4.0426910701       -1.2520221894
 H          2.6651528104        4.2755384901       -2.1919495594
 H          2.7956359904        4.2640580801       -0.3873611594
 H          0.1595586205        4.5691121703       -2.0015285294
 H          0.3020054504        4.5513345002       -0.1957810894
 H          1.1793505603        2.2622545102       -2.0922066395
