  62
        -98.94168323
 C          2.3835079328        1.2357547726        0.1692885175
 C          3.3018693361        0.5480933938        1.0029982890
 C          4.0852021242       -0.5160974424        0.3663614030
 C          3.8867805170       -0.8023429227       -0.9329163276
 C          4.6236395145       -1.8414639893       -1.7338057944
 C          4.0536996881       -3.2595036129       -1.5920067714
 C          4.3246013702       -3.9381803825       -0.2486059247
 H          4.0640282276       -4.9920962564       -0.3641499007
 H          5.3908974693       -3.8882958340       -0.0260908971
 C          3.5239938457       -3.3586805767        0.9261385174
 H          3.0947744051       -4.1748130541        1.5120989799
 H          2.6871352890       -2.7706512064        0.5402428774
 C          4.3417758653       -2.4925788066        1.8847394391
 H          3.6700363662       -2.1058303152        2.6554468159
 H          5.0991125577       -3.1070585847        2.3762116091
 C          5.0378341670       -1.2975766016        1.2201936250
 H          5.4019987715       -0.6328388067        2.0073140537
 H          5.8868015294       -1.6384085897        0.6281393023
 H          4.5003910935       -3.8703797282       -2.3798782621
 H          2.9762383470       -3.2230196206       -1.7719379863
 H          4.5419679707       -1.5416377122       -2.7808164933
 H          5.6771662879       -1.8417007792       -1.4525761659
 O          2.9723946106       -0.1444100998       -1.6923999396
 C          2.1803654786        0.8692403074       -1.1626265362
 O          1.3640091419        1.3416370445       -1.9743246137
 H          0.1161268700        0.1862372384        1.3799964195
 C         -0.4905639105        0.9167095334        0.8571156732
 C          0.0889417739        2.1196083267        0.4708375773
 C         -0.6937018890        3.0417969447       -0.2097254095
 C         -2.0173622264        2.7572914969       -0.4978642897
 C         -2.5888857699        1.5589709133       -0.1123983618
 C         -1.8135509085        0.6266243851        0.5649520369
 N         -2.3856171155       -0.5928087397        0.9709098621
 S         -3.2372255261       -1.4887962310       -0.1665977644
 O         -3.1796971078       -2.8523278497        0.3160366938
 O         -2.7487690406       -1.2615210672       -1.5068065056
 C         -4.9065440938       -0.8895186049       -0.0085570225
 C         -5.5802580438       -0.4285483270       -1.1224843406
 C         -6.8813341058        0.0277238158       -0.9773876573
 C         -7.4821140346        0.0141036805        0.2720466295
 C         -6.7925261485       -0.4548452195        1.3803924609
 C         -5.4923163973       -0.9135029811        1.2420933048
 H         -4.9230749934       -1.2881818519        2.0762198297
 H         -7.2629056637       -0.4636152252        2.3503969804
 H         -8.4937578299        0.3713372567        0.3825216358
 H         -7.4185354058        0.3923258714       -1.8381516498
 H         -5.0691824681       -0.4305049688       -2.0722789643
 H         -1.7469939773       -1.1884951090        1.4784008583
 H         -3.6170141872        1.3325245527       -0.3429740162
 H         -2.6124623393        3.4795030586       -1.0356910024
 H         -0.2602719571        3.9711067032       -0.5403185691
 C          1.5446338293        2.3319078866        0.8028921448
 H          1.6685963238        2.1719679429        1.8875769209
 C          2.0334130207        3.7441952051        0.5211793213
 C          3.4816132149        4.0178871918        0.2489921131
 C          2.4685165703        4.1932431370       -0.8403147519
 H          2.2208132214        5.1981189125       -1.1500713366
 H          2.4373430751        3.4704482692       -1.6401070613
 H          3.9287672319        4.8983485697        0.6853698645
 H          4.1492202254        3.1701036682        0.1940467377
 H          1.5148313286        4.4775632273        1.1311370696
 O          3.4566454108        0.8099362058        2.2258538478
