  62
        -98.93667108
 C         -1.7107631696        0.4253710657        0.4914104202
 C         -2.9512935266        0.9963164230        0.8603641541
 C         -4.0965671446        0.6749093521       -0.0040117265
 C         -3.9040227792       -0.1093649909       -1.0804548656
 C         -4.9814714893       -0.5919737851       -2.0094902064
 C         -5.7606491977       -1.7498202325       -1.3533128847
 C         -7.2249009074       -1.4326237312       -1.0489544700
 H         -7.6039917728       -2.2270900077       -0.4025345591
 H         -7.7961009418       -1.4647164442       -1.9791895299
 C         -7.4911686705       -0.0789960013       -0.3832442975
 H         -8.5117375463       -0.1108536577        0.0043193114
 H         -7.4696832356        0.7108955593       -1.1356642354
 C         -6.5426907460        0.3057261582        0.7595656521
 H         -6.1017298464       -0.5840134050        1.2096210006
 H         -7.1307508969        0.7969833280        1.5375380262
 C         -5.4220162917        1.2841496628        0.3606716956
 H         -5.2056254218        1.9333591628        1.2144514233
 H         -5.7688755802        1.9229121372       -0.4565562154
 H         -5.2481210930       -2.0271225651       -0.4297935924
 H         -5.7292302575       -2.6246788978       -2.0044703224
 H         -5.6508113339        0.2293175796       -2.2558790330
 H         -4.4945836873       -0.9315941830       -2.9239197542
 O         -2.6934912099       -0.6289080621       -1.4098834793
 C         -1.5674882055       -0.3824793887       -0.6366216983
 O         -0.5295938450       -0.9258152682       -1.0542231222
 H          2.2096208932        0.4649707517        1.6881892455
 C          1.9487048393        1.1271375710        0.8766415104
 C          0.6139319493        1.3576064930        0.5734519355
 C          0.3176424402        2.2332367296       -0.4666732876
 C          1.3235484606        2.8282919467       -1.2048634150
 C          2.6529517344        2.5778720772       -0.9129286207
 C          2.9610566477        1.7301602351        0.1404465541
 N          4.3213290225        1.4761042652        0.4346625144
 S          5.1066379930        0.4459663977       -0.6310748976
 O          6.4693645213        0.3507524477       -0.1593849724
 O          4.9216771178        0.9392390501       -1.9706281193
 C          4.2799726859       -1.1182343261       -0.4068808244
 C          4.8675035295       -2.0811385713        0.3909697162
 C          4.1763217171       -3.2548791746        0.6426679866
 C          2.9063735463       -3.4353699236        0.1138163645
 C          2.3279013940       -2.4575267847       -0.6807387644
 C          3.0215705239       -1.2876542185       -0.9485027894
 H          2.5881016711       -0.5157142985       -1.5635090651
 H          1.3308373075       -2.5701701407       -1.0765786647
 H          2.3613998060       -4.3428848707        0.3226661816
 H          4.6230271888       -4.0206533762        1.2565083357
 H          5.8517201138       -1.8934353335        0.7892415346
 H          4.4672388525        1.1375794623        1.3764874767
 H          3.4504055495        3.0127816365       -1.4925979880
 H          1.0702263037        3.4932400374       -2.0169524939
 H         -0.7183863544        2.4350729688       -0.7022128777
 C         -0.4958535897        0.6987896846        1.3558891730
 H         -0.8400683266        1.4086252092        2.1237656480
 C         -0.0486226642       -0.5801046900        2.0383431665
 C          0.4996879228       -0.5549675699        3.4333063655
 C         -0.8654594269       -1.1156938987        3.1744688116
 H         -1.0110039179       -2.1827532053        3.2486099067
 H         -1.7234651435       -0.5356371073        3.4821448225
 H          0.5639458735        0.4009346709        3.9314030562
 H          1.2931008234       -1.2420252155        3.6875117735
 H          0.3669215460       -1.2970675976        1.3387829398
 O         -3.0924404298        1.7443907900        1.8661762047
