  62
        -98.94321728
 C         -1.1185050328       -1.6499368903       -0.3505399958
 C          0.0764066115       -1.4920300476       -1.0876997380
 C          1.2934002228       -2.1111700929       -0.5312713242
 C          1.2115160925       -2.7421235322        0.6543887316
 C          2.3157321798       -3.4314178360        1.4113509984
 C          3.2425921177       -2.4462348630        2.1446169362
 C          3.5830076161       -1.1791236672        1.3635880664
 H          2.6514796211       -0.6795454089        1.0867196747
 H          4.1107738477       -0.5024064562        2.0427435000
 C          4.4646546239       -1.3878448208        0.1337437699
 H          4.6539607704       -0.4046667643       -0.3053566006
 H          5.4261359520       -1.7945010730        0.4570988819
 C          3.9021546592       -2.3028023002       -0.9545835780
 H          3.9508428826       -3.3425248787       -0.6427387394
 H          4.5562397665       -2.2086829532       -1.8265382296
 C          2.4948877933       -1.9560174943       -1.4315790469
 H          2.2774708541       -2.5527841285       -2.3261787884
 H          2.4745981422       -0.9132169706       -1.7661350660
 H          4.1607170997       -2.9690299387        2.4190279509
 H          2.7413256880       -2.1339266787        3.0640715060
 H          1.8354451932       -4.0729546766        2.1535192071
 H          2.8792335556       -4.0700448590        0.7368076303
 O          0.0513838129       -2.8090609584        1.3665542999
 C         -1.1279837217       -2.2549588884        0.9048874887
 O         -2.0938941670       -2.3794915461        1.6835109778
 O          0.1295979443       -0.8591865468       -2.1782143768
 C         -2.3968457484       -1.0262089006       -0.8863767647
 C         -2.7517544708        0.1461724846       -0.0062960357
 C         -3.9781963221        0.3178389866        0.6199617657
 C         -4.1821411453        1.3963747802        1.4648823831
 C         -3.1727433807        2.3082727155        1.7129550260
 C         -1.9456885961        2.1510906040        1.0770248201
 C         -1.7577728257        1.0939021340        0.2049140047
 H         -0.8051066660        0.9731185099       -0.2892532086
 N         -0.8924073082        3.0546396459        1.2825972361
 S          0.6888806684        2.5116478840        1.2095967803
 O          0.8246404498        1.1559132443        1.6907069858
 O          1.4458044818        3.5112334421        1.9371708891
 C          1.1366510341        2.6138032336       -0.5111182078
 C          2.2436973864        1.9007031241       -0.9247179414
 C          2.6471799223        1.9888627367       -2.2469413912
 C          1.9390736255        2.7874941921       -3.1305614724
 C          0.8323172009        3.5012000480       -2.6990612779
 C          0.4258372321        3.4203378097       -1.3764539217
 H         -0.4353894299        3.9569189403       -1.0144956094
 H          0.2810543088        4.1190228892       -3.3897022899
 H          2.2502633403        2.8492782848       -4.1613716252
 H          3.5077441011        1.4323524454       -2.5836100738
 H          2.7584543336        1.2834766433       -0.2054303383
 H         -1.0330926538        3.7286718381        2.0204216176
 H         -3.3264352609        3.1307011309        2.3948048526
 H         -5.1373034843        1.5175312482        1.9531400958
 H         -4.7674929135       -0.3984633725        0.4620643801
 H         -2.1351126518       -0.6381313409       -1.8819067167
 C         -3.5003832313       -2.0500338948       -1.0300879000
 C         -4.6084048194       -1.8212145590       -2.0131972438
 C         -3.5726738642       -2.8698587777       -2.2823173217
 H         -3.8543684586       -3.9089207730       -2.2012378574
 H         -2.8339157240       -2.6765645125       -3.0463160041
 H         -5.6050394967       -2.1420343809       -1.7506372234
 H         -4.5756564650       -0.9154220836       -2.5992259217
 H         -3.7367366595       -2.5448913713       -0.0952970461
