  62
        -98.94158526
 C          2.7946904026        0.6982335986       -0.2711191642
 C          2.2045216280       -0.2466574269       -1.1459100510
 C          2.5517996868       -1.6548252745       -0.9023579231
 C          3.4160202068       -1.9679857585        0.0787139685
 C          3.8160100216       -3.3619030059        0.4639111372
 C          2.9053914151       -3.9171949093        1.5676854089
 C          1.4120430828       -3.7496065776        1.2842817075
 H          0.8698568118       -4.2134649939        2.1115370337
 H          1.1550253880       -2.6870160354        1.2967705823
 C          0.9418004126       -4.3635686772       -0.0414737259
 H          1.6764522333       -5.0878812299       -0.3965785682
 H          0.0098521739       -4.9035654791        0.1378504502
 C          0.6569071707       -3.3427547848       -1.1449875479
 H         -0.0000484299       -2.5602206516       -0.7532267975
 H          0.1161998450       -3.8535745414       -1.9467465679
 C          1.8923899092       -2.6851852457       -1.7748222791
 H          2.6073293059       -3.4555617218       -2.0713323578
 H          1.5661338174       -2.1539384600       -2.6735744421
 H          3.1334285450       -4.9761482419        1.7025273969
 H          3.1351451464       -3.3979110588        2.5010080074
 H          3.7721726126       -4.0027000315       -0.4144378663
 H          4.8426987707       -3.3344012612        0.8330101560
 O          3.9999258253       -1.0323554071        0.8698453917
 C          3.6811501902        0.3068100510        0.7378701828
 O          4.2565712963        1.0498771214        1.5583502051
 H          0.0179701802        1.4059948649       -1.1314918700
 C         -0.0229418666        1.9162935119       -0.1805883105
 C          1.1477150716        2.4075363536        0.3797764527
 C          1.0762559439        3.0332382432        1.6188994631
 C         -0.1340978475        3.1541985585        2.2801320743
 C         -1.2950474259        2.6430402422        1.7270204483
 C         -1.2303670268        2.0135341663        0.4918935026
 N         -2.4047466689        1.4406996832       -0.0638327244
 S         -2.8417308903       -0.0072515169        0.7007724034
 O         -3.0078636542        0.2569199152        2.1076580824
 O         -1.9115632672       -1.0611327274        0.3550537338
 C         -4.4290531630       -0.3089815087       -0.0508155108
 C         -4.5520544548       -1.2633466654       -1.0412487909
 C         -5.7893172073       -1.4540089983       -1.6371951371
 C         -6.8735440318       -0.6880312975       -1.2372163638
 C         -6.7330205673        0.2682229409       -0.2421252089
 C         -5.4997102513        0.4626147243        0.3581884361
 H         -5.3434250235        1.1885158168        1.1385929285
 H         -7.5787475159        0.8614762348        0.0660275060
 H         -7.8344865801       -0.8381343869       -1.7034642637
 H         -5.9012896550       -2.1971652759       -2.4102824810
 H         -3.6824085277       -1.8383596818       -1.3174548334
 H         -2.2532589351        1.2163705720       -1.0408068695
 H         -2.2367178306        2.6989324198        2.2474586378
 H         -0.1714278935        3.6410535890        3.2430261730
 H          1.9839918695        3.4025699728        2.0745073946
 C          2.4739459017        2.1870301737       -0.3082976015
 H          3.2515133567        2.6748109817        0.2942176864
 C          2.5017317475        2.7825062731       -1.7013780598
 C          2.6410106886        4.2668324656       -1.8494095006
 C          3.7791155875        3.3659261890       -2.2220661133
 H          4.0154801758        3.2348553695       -3.2672852185
 H          4.6423590302        3.3380128589       -1.5729366715
 H          2.0943729541        4.7586252855       -2.6391991162
 H          2.7331514477        4.8520117324       -0.9469029969
 H          1.8720482350        2.2609527128       -2.4092702340
 O          1.4250570592        0.0429192277       -2.0938454181
