  62
        -98.94145590
 C         -0.6276838971       -1.7986159893        0.3937060202
 C         -0.9686849130       -0.8420715886       -0.5874565887
 C         -2.0597617676        0.0948337374       -0.2514054828
 C         -2.5766219048        0.0672142927        0.9910815256
 C         -3.6673382456        0.9267187275        1.5766632409
 C         -5.0711889079        0.5222275846        1.1047108863
 C         -5.1955709193        0.3016246346       -0.3997394005
 H         -4.5177262341       -0.4994112283       -0.6984928491
 H         -6.2137340678       -0.0417486272       -0.6007152495
 C         -4.9377663301        1.5372996197       -1.2594098617
 H         -5.6040703214        2.3410965573       -0.9395886440
 H         -5.2036890096        1.2750904787       -2.2863626236
 C         -3.4982331093        2.0616778854       -1.2658096225
 H         -3.2889775526        2.6638110799       -0.3859354702
 H         -3.3980506136        2.7248107124       -2.1290412819
 C         -2.4353912603        0.9790462428       -1.4151562545
 H         -2.7188171872        0.3064349868       -2.2331070050
 H         -1.4970402674        1.4421113798       -1.7367398521
 H         -5.3427464897       -0.4101165172        1.6061321633
 H         -5.7751369704        1.2932137916        1.4233819665
 H         -3.6131825675        0.7980436958        2.6603844658
 H         -3.4761640297        1.9734919021        1.3599546375
 O         -2.1546746093       -0.8251979331        1.9355629519
 C         -1.2065390880       -1.7891912414        1.6605864227
 O         -0.9615397846       -2.5654973168        2.6085984875
 H          1.4464278838       -0.5954854152        1.1496108347
 C          2.1052277652       -1.0107021263        0.4013867085
 C          1.7438149314       -2.1750888835       -0.2632959612
 C          2.6178141095       -2.6989957741       -1.2083468522
 C          3.8160317746       -2.0629558541       -1.4825616256
 C          4.1630214721       -0.8924567222       -0.8332531577
 C          3.2952935238       -0.3622118461        0.1163025635
 N          3.6210968483        0.8205566770        0.7992177546
 S          2.4841406916        1.9242703356        1.2967022961
 O          3.2701174265        3.0638489512        1.7249876008
 O          1.6160037088        1.3585038713        2.3007308800
 C          1.5200403546        2.4396682659       -0.1170528361
 C          0.4390939871        3.2538124187        0.1616686427
 C         -0.2907508259        3.7918039724       -0.8844471785
 C          0.0661342773        3.5001164800       -2.1927015709
 C          1.1438893445        2.6713576010       -2.4569476529
 C          1.8860472094        2.1400839769       -1.4124903978
 H          2.7239539777        1.4921570549       -1.6096550503
 H          1.4124403804        2.4322471960       -3.4731911098
 H         -0.5026068461        3.9171908046       -3.0088374019
 H         -1.1331274702        4.4323568188       -0.6786351178
 H          0.1956107585        3.4476097508        1.1944985308
 H          4.4728063860        1.2742683841        0.5034633171
 H          5.0943637116       -0.3927111146       -1.0526127206
 H          4.4863918232       -2.4804156702       -2.2182084683
 H          2.3600831013       -3.6057243266       -1.7304733914
 C          0.4370121261       -2.8372613501        0.1006047375
 H          0.5887883072       -3.3890092868        1.0409748065
 C         -0.0561499624       -3.8031605889       -0.9588816741
 C          0.3552025247       -5.2436834397       -0.9274616460
 C         -1.0469849752       -4.8568272750       -0.5680070452
 H         -1.8440442421       -5.0977209171       -1.2552184392
 H         -1.3403609302       -4.8965217972        0.4714132841
 H          1.0102463748       -5.5608643562       -0.1299500770
 H          0.5180945707       -5.7546528003       -1.8645151716
 H         -0.1866555082       -3.3264201624       -1.9235575426
 O         -0.3983266277       -0.7703521049       -1.7077992300
