  62
        -98.93981439
 C          2.4929185316        1.0049821915       -0.0530606061
 C          3.6951154897        1.0634815456        0.6914679762
 C          4.8855504724        0.5231673739        0.0260983657
 C          4.7858341306        0.0285173996       -1.2213757689
 C          5.9132239254       -0.5399799882       -2.0399797052
 C          6.2163290390       -2.0152843022       -1.7443520682
 C          6.9057470495       -2.2823763103       -0.4057622913
 H          7.2522979868       -3.3175517856       -0.4250479754
 H          7.7867770609       -1.6458128670       -0.3183455229
 C          6.0038836938       -2.0877753464        0.8211420955
 H          4.9571949030       -2.0866199715        0.5073614087
 H          6.1308498605       -2.9308784582        1.5041331640
 C          6.2838896465       -0.8134792755        1.6180116385
 H          5.5661390080       -0.7592174417        2.4406942244
 H          7.2860729009       -0.8639479686        2.0493956937
 C          6.1676415614        0.4805031505        0.8016930136
 H          7.0216369332        0.5809013573        0.1323336245
 H          6.1644961368        1.3244176691        1.4959099612
 H          5.2822778040       -2.5800179936       -1.7923391442
 H          6.8667220177       -2.3805570229       -2.5424734830
 H          6.8138545409        0.0554700592       -1.8879524081
 H          5.6110687838       -0.4540709806       -3.0858862559
 O          3.6137523074        0.0059445541       -1.9099440190
 C          2.4369021434        0.4709412475       -1.3403676124
 O          1.4357565874        0.3636390772       -2.0733725573
 O          3.7687636841        1.5429055416        1.8549704784
 C          1.2124471466        1.5191442178        0.5795600513
 C          0.2107688839        0.3951113614        0.6831680247
 C          0.5966007538       -0.7832850829        1.3178587360
 C         -0.2785403276       -1.8455218025        1.4307613507
 C         -1.5595246930       -1.7589515988        0.9135059295
 C         -1.9594260379       -0.5858316107        0.2900928520
 C         -1.0792476919        0.4863373721        0.1874090997
 H         -1.4046520676        1.3908328029       -0.3021438863
 N         -3.2520105761       -0.4914532007       -0.2534282340
 S         -4.5317287843       -1.1570373614        0.6230617999
 O         -4.4447305032       -0.7577116832        2.0101584590
 O         -4.5669951954       -2.5775278095        0.3797701090
 C         -5.9238461796       -0.3745142859       -0.1669254903
 C         -6.4922536517        0.7443329781        0.4118083597
 C         -7.5588201401        1.3592715046       -0.2250087982
 C         -8.0337419909        0.8495792304       -1.4240690903
 C         -7.4527312723       -0.2744842665       -1.9924224586
 C         -6.3869447888       -0.8950235730       -1.3605767113
 H         -5.9101482087       -1.7749040327       -1.7599420763
 H         -7.8265001103       -0.6687653396       -2.9235783707
 H         -8.8638517029        1.3299090209       -1.9175428488
 H         -8.0147379539        2.2313337922        0.2154388096
 H         -6.0959669903        1.1004366339        1.3492192392
 H         -3.4670663279        0.4426477481       -0.5739416076
 H         -2.2520624844       -2.5815267825        0.9913774712
 H          0.0371600516       -2.7531794513        1.9237474255
 H          1.5981857736       -0.8549754676        1.7204905489
 H          1.4924599587        1.8197562606        1.6002042017
 C          0.7029941874        2.7357178535       -0.1631687020
 C         -0.1487714105        3.7472616722        0.5427359197
 C          1.2662698060        4.0809730000        0.1798621548
 H          1.4430837203        4.7844788527       -0.6197919980
 H          2.0026588500        4.1235648861        0.9689414543
 H         -0.9434527334        4.2281698631       -0.0076015193
 H         -0.3769197745        3.5686719326        1.5827463853
 H          0.5001767354        2.5310140011       -1.2084752531
