  62
        -98.94080261
 C         -2.5884787622       -1.3230444669        0.2218989797
 C         -2.4163636310       -0.2252093501       -0.6589146111
 C         -3.5486699777        0.7135484264       -0.7421418193
 C         -4.6592271200        0.4850498858       -0.0198822471
 C         -5.8601740839        1.3836699300        0.0226147262
 C         -5.7437168215        2.4107590196        1.1574516663
 C         -4.4037846185        3.1461527780        1.1905293166
 H         -4.4482693675        3.8667859138        2.0099548973
 H         -3.6100826066        2.4350150794        1.4315817687
 C         -4.0475859213        3.8760576867       -0.1120653309
 H         -3.6699738616        4.8703068008        0.1357030594
 H         -4.9440794266        4.0117505599       -0.7182429653
 C         -2.9687762156        3.1886770063       -0.9516450623
 H         -2.0990997762        2.9679304964       -0.3264629559
 H         -2.6417164922        3.8892099544       -1.7250285432
 C         -3.3950505522        1.8953313094       -1.6577659185
 H         -4.3135928714        2.0693746538       -2.2222448766
 H         -2.6025981473        1.6286432371       -2.3636053492
 H         -5.8716807640        1.8905719748        2.1094621260
 H         -6.5545656728        3.1338730956        1.0532448916
 H         -6.7448296143        0.7674349551        0.1916686547
 H         -5.9609449814        1.8927002396       -0.9338807504
 O         -4.7928308383       -0.5835371539        0.8057071145
 C         -3.7603682792       -1.4913718506        0.9669892918
 O         -4.0037047210       -2.3956970143        1.7902619652
 O         -1.3871452731       -0.0241117965       -1.3549098926
 C         -1.4968448441       -2.3533526755        0.4674033153
 C         -0.1922590910       -1.6494032625        0.7430081023
 C          0.0190607613       -1.0740002712        1.9922802876
 C          1.1854103430       -0.3830488225        2.2615653628
 C          2.1597643015       -0.2427728086        1.2885173771
 C          1.9476649420       -0.7941204758        0.0324446886
 C          0.7854866024       -1.5094267189       -0.2276734171
 H          0.6230290650       -1.9216979990       -1.2112306719
 N          2.9227415117       -0.6546677207       -0.9671361906
 S          3.7422945372        0.7972853604       -1.1348195148
 O          2.9486810085        1.9313221084       -0.7228793310
 O          4.2119071350        0.8040626387       -2.5035783677
 C          5.1436621255        0.6062436055       -0.0500470505
 C          5.8971447569       -0.5467189158       -0.1535908014
 C          6.9982719442       -0.7036901215        0.6726731648
 C          7.3287406571        0.2906024255        1.5813969801
 C          6.5648861259        1.4439432858        1.6710137490
 C          5.4612348758        1.6062992757        0.8478634093
 H          4.8353222748        2.4838673443        0.8870273146
 H          6.8232337097        2.2165287426        2.3773633661
 H          8.1865173026        0.1660790467        2.2232998129
 H          7.5943156316       -1.5995872306        0.6060492663
 H          5.6090380296       -1.2943939434       -0.8733922896
 H          2.6337843743       -1.0124188328       -1.8660442859
 H          3.0639008604        0.3091680230        1.4868716266
 H          1.3378369819        0.0551719029        3.2363496025
 H         -0.7497426498       -1.1676920188        2.7474637791
 H         -1.8028006291       -2.8717927930        1.3900325940
 C         -1.3790362074       -3.4234039598       -0.6080283398
 C         -2.6102420997       -4.0113341479       -1.2287274437
 C         -1.6810937966       -3.1751135554       -2.0539150940
 H         -1.0691669719       -3.6711134784       -2.7937770117
 H         -1.9965883491       -2.1856207441       -2.3443809972
 H         -2.6420829011       -5.0759034806       -1.4047156088
 H         -3.5610905612       -3.5865486970       -0.9408740932
 H         -0.5696806848       -4.1152843594       -0.3944972489
