  62
        -98.93753380
 C         -1.6985390187       -1.4024590081        0.4218974459
 C         -1.3569968040       -0.3279352367       -0.4337855509
 C         -2.0559489924        0.9499785826       -0.2025806717
 C         -2.9060373729        1.0646209225        0.8328195452
 C         -3.7033795626        2.2456714564        1.3461510462
 C         -3.8960358623        3.4919243925        0.4860102740
 C         -4.7524412900        3.2824110756       -0.7621054486
 H         -5.7820174187        3.0921261486       -0.4488665475
 H         -4.7456163994        4.2098225015       -1.3387810288
 C         -4.3237380196        2.1306838554       -1.6674525968
 H         -4.4308453812        1.1849661933       -1.1322447763
 H         -5.0111497999        2.0999980664       -2.5169907174
 C         -2.9036999522        2.2302112549       -2.2212460072
 H         -2.7684643800        3.1948270193       -2.7137580474
 H         -2.7915796334        1.4492112810       -2.9777889672
 C         -1.7740191590        2.0428760728       -1.1924881605
 H         -0.8703538393        1.7427577261       -1.7307296803
 H         -1.5425144049        2.9712136929       -0.6748320022
 H         -4.4035476915        4.2277159155        1.1160263399
 H         -2.9318571574        3.9165480848        0.2217447352
 H         -4.6844557645        1.8457487395        1.6230480417
 H         -3.2159802308        2.5433518014        2.2817846830
 O         -3.1432540197        0.0219407409        1.6842626132
 C         -2.5493780356       -1.2144218526        1.5103618845
 O         -2.8501706055       -2.0532526001        2.3858484700
 H          0.5176656078       -1.4313276572        1.9591933764
 C          1.0896457635       -1.7991016841        1.1146577552
 C          0.4505617347       -2.5549003237        0.1384806769
 C          1.1976439800       -3.0091988781       -0.9397715995
 C          2.5393354381       -2.6854448830       -1.0510871843
 C          3.1555412303       -1.8849098385       -0.1060791672
 C          2.4183840423       -1.4407150456        0.9829948671
 N          3.0278643711       -0.5359430691        1.9036162105
 S          2.5876661308        1.0541117564        1.5252136185
 O          3.2699062820        1.8871999199        2.4944912543
 O          1.1481433464        1.2115145420        1.4878210478
 C          3.3023721976        1.2698763723       -0.0859165333
 C          4.6168564436        1.6876912251       -0.1664517799
 C          5.2047238663        1.8110187884       -1.4146816550
 C          4.4724854799        1.5090703109       -2.5534163849
 C          3.1552983317        1.0885626358       -2.4532816471
 C          2.5579113815        0.9642784283       -1.2079873268
 H          1.5371300504        0.6290932840       -1.1003048165
 H          2.5839618643        0.8477131200       -3.3353152959
 H          4.9305444119        1.6009878045       -3.5256644373
 H          6.2289569947        2.1375972145       -1.4956294813
 H          5.1419170759        1.9110063875        0.7477064781
 H          2.7422969652       -0.7080636536        2.8594850913
 H          4.1885589160       -1.5925343853       -0.2015522502
 H          3.1043324255       -3.0378831127       -1.8999845716
 H          0.7190953864       -3.5868192680       -1.7135412215
 C         -1.0338607745       -2.7657501156        0.3003932815
 H         -1.2047320466       -3.2507967045        1.2762488717
 C         -1.6436587506       -3.6772512795       -0.7526783027
 C         -3.0922261738       -3.5596662892       -1.1199859801
 C         -2.0347383003       -3.1846047722       -2.1120315130
 H         -1.8748680116       -3.8374065069       -2.9575911806
 H         -1.8773021664       -2.1403698743       -2.3283545074
 H         -3.6559615507       -4.4662807745       -1.2812083681
 H         -3.6620104183       -2.7692283548       -0.6524518606
 H         -1.2455381819       -4.6855020281       -0.6929640683
 O         -0.5084927450       -0.4148507192       -1.3579273237
