  62
        -98.93821214
 C          1.4511671843        1.6373797670       -0.5087573888
 C          1.3897371112        0.2641895601       -0.8446074971
 C          2.6223077061       -0.5203813285       -0.6279296017
 C          3.7197039436        0.0996603021       -0.1589152443
 C          5.0286012696       -0.5465077638        0.1976392566
 C          4.9785150044       -1.2395329985        1.5772737936
 C          3.6217972499       -1.8310031689        1.9639387999
 H          3.6555796307       -2.0737228259        3.0295342631
 H          2.8503672092       -1.0685873720        1.8363710134
 C          3.2195078155       -3.0994367106        1.2109659900
 H          3.8393307135       -3.9271878601        1.5650965748
 H          2.1816968201       -3.3237166936        1.4678538655
 C          3.3489719707       -3.0420703145       -0.3089199826
 H          4.3963622083       -2.9457917559       -0.5833560400
 H          3.0099834336       -4.0046710235       -0.7026364606
 C          2.5032888570       -1.9757039545       -1.0048375918
 H          2.6899624600       -2.0418131655       -2.0837587488
 H          1.4441738659       -2.2163495473       -0.8672548074
 H          5.2318949810       -0.4925799752        2.3327378091
 H          5.7401444044       -2.0197566371        1.6080879411
 H          5.3100304658       -1.2428620443       -0.5878537875
 H          5.7814604290        0.2433868347        0.2298550480
 O          3.7455890045        1.4307327497        0.1249468167
 C          2.6266634146        2.2234844527       -0.0309309563
 O          2.7997717138        3.4205071797        0.2774453524
 H         -1.5041279366        0.5005461348       -0.2452031919
 C         -1.5143667238        1.1978663090        0.5756143784
 C         -0.6815522935        2.3079936002        0.5495719327
 C         -0.6847479738        3.1733849600        1.6387779124
 C         -1.5104361771        2.9377659970        2.7229277962
 C         -2.3523657898        1.8405708049        2.7377741596
 C         -2.3479625894        0.9622604214        1.6591625151
 N         -3.1566649919       -0.1795560724        1.6711420870
 S         -3.7685911358       -0.8462379362        0.2666181581
 O         -4.0915567309        0.1649406617       -0.7126912799
 O         -4.8840971338       -1.6510270453        0.7253781482
 C         -2.5049617944       -1.9431096472       -0.3345430515
 C         -2.2640774669       -2.0161619505       -1.6903617193
 C         -1.3335700456       -2.9291562922       -2.1579765143
 C         -0.6655691339       -3.7504611616       -1.2646583942
 C         -0.9172980245       -3.6627392048        0.0961816151
 C         -1.8472184116       -2.7525276351        0.5694566026
 H         -2.0662326695       -2.6555470850        1.6201465490
 H         -0.3878855570       -4.2989908746        0.7880509424
 H          0.0605099516       -4.4596249098       -1.6311177019
 H         -1.1265810763       -2.9888696426       -3.2144345573
 H         -2.7974542428       -1.3501303755       -2.3501508014
 H         -3.8033547622       -0.2490142542        2.4424588947
 H         -3.0028440105        1.6581657631        3.5797782488
 H         -1.5038563110        3.6179298567        3.5613479435
 H         -0.0219237324        4.0270959955        1.6327384625
 C          0.2478210408        2.5626434277       -0.6135868847
 H          0.6482845121        3.5797668548       -0.5049277406
 C         -0.4662522217        2.4721134125       -1.9466852371
 C         -1.3667269242        3.5952523666       -2.3607561487
 C         -0.0583309923        3.3855184166       -3.0612937405
 H         -0.0672184966        3.0031767618       -4.0709607634
 H          0.7410102805        4.0862321889       -2.8668857035
 H         -2.2798128050        3.3550674601       -2.8838714041
 H         -1.4539573384        4.4386279036       -1.6920240606
 H         -0.7633011723        1.4672175426       -2.2150510667
 O          0.3647838913       -0.3082306221       -1.2989808844
