  62
        -98.94091272
 C         -1.5611534088       -0.6734646177        0.4035648565
 C         -2.6579879428       -0.9003507213       -0.4647844649
 C         -3.5814004276        0.2336126829       -0.6281812089
 C         -3.3233181473        1.4092947713       -0.0298131189
 C         -4.1516100519        2.6608923652       -0.1359969257
 C         -5.3374670116        2.7086393646        0.8372380079
 C         -6.4982376822        1.7736006916        0.4954949956
 H         -6.7984277205        1.9321123935       -0.5407508155
 H         -7.3403924335        2.0647063681        1.1265175327
 C         -6.2013210192        0.2851135070        0.7254346376
 H         -7.0404906173       -0.1768188037        1.2506218722
 H         -5.3261508280        0.1839130513        1.3716900559
 C         -5.9685169271       -0.5195386850       -0.5535004766
 H         -6.8851233721       -0.5361033658       -1.1472666400
 H         -5.7316252894       -1.5489249146       -0.2723178015
 C         -4.8263460097        0.0073187634       -1.4320012510
 H         -5.1303517646        0.9262625172       -1.9324272978
 H         -4.6005104676       -0.7472806032       -2.1892511253
 H         -5.7146500751        3.7339377235        0.8413379628
 H         -4.9736559476        2.4850567684        1.8429085946
 H         -4.5137263604        2.7758709885       -1.1579764559
 H         -3.4855445429        3.4952496930        0.0938160816
 O         -2.2267695267        1.6043013806        0.7512625649
 C         -1.3457028211        0.5677179011        1.0077858438
 O         -0.4132158718        0.8714517328        1.7796506952
 O         -2.8724683007       -1.9745017235       -1.0803024427
 C         -0.5203544384       -1.7337206217        0.7264372717
 C          0.6087599842       -1.6546197003       -0.2682470679
 C          0.3691970640       -1.7413805335       -1.6371135122
 C          1.4144180334       -1.6469902253       -2.5365609407
 C          2.7101282339       -1.4423309567       -2.0932125043
 C          2.9579397534       -1.3444406475       -0.7298703882
 C          1.9091296047       -1.4633955198        0.1728887907
 H          2.1179756824       -1.3820600109        1.2289114429
 N          4.2623373081       -1.1342777812       -0.2472373048
 S          4.5282764960        0.1057967558        0.8493218757
 O          5.9647577269        0.2771984222        0.8558826396
 O          3.9226862087       -0.2190778598        2.1139375675
 C          3.7560026007        1.5285284258        0.1013325273
 C          2.4312479365        1.8178318900        0.3569984429
 C          1.8439307304        2.8855412952       -0.3049668209
 C          2.5818075385        3.6409441592       -1.2020834248
 C          3.9140249953        3.3390687713       -1.4438219004
 C          4.5059889984        2.2704709823       -0.7920374218
 H          5.5401662209        2.0060769787       -0.9436060618
 H          4.4884850262        3.9309771843       -2.1380417074
 H          2.1162721472        4.4698094214       -1.7118490985
 H          0.8070178915        3.1092969954       -0.1065572924
 H          1.8639995727        1.2292881409        1.0611262741
 H          4.9662173653       -1.1088186264       -0.9719406440
 H          3.5242105727       -1.3593901040       -2.7971409564
 H          1.2181635715       -1.7230885295       -3.5952850057
 H         -0.6432550911       -1.8873680749       -1.9822641723
 H         -0.1104473778       -1.4484881151        1.7091125063
 C         -1.1056248183       -3.1314269234        0.8733919521
 C         -0.7868979807       -4.2690063377       -0.0450428808
 C         -0.2250949140       -4.2520859079        1.3425882108
 H         -0.6125350384       -4.9467896128        2.0724961050
 H          0.8280497102       -4.0377882069        1.4534736039
 H         -1.5834017144       -4.9598926148       -0.2755310193
 H         -0.1126489409       -4.0925628273       -0.8678336184
 H         -2.1137484199       -3.1092546037        1.2739453395
