  62
        -98.93688097
 C         -2.3423032925       -1.0585178653        0.3411663498
 C         -2.5498335151        0.0491107594       -0.5116038785
 C         -3.5774434621        1.0295026580       -0.0993570257
 C         -4.2363063709        0.8404700792        1.0582941640
 C         -5.3332943548        1.6773403854        1.6604834016
 C         -6.6888056747        1.4638789714        0.9675561117
 C         -6.6317424762        1.4276477606       -0.5573265922
 H         -5.9529826744        0.6328084084       -0.8720071461
 H         -7.6286495726        1.1646799296       -0.9208261737
 C         -6.2226828479        2.7387536223       -1.2242406510
 H         -6.3113895003        2.5948300170       -2.3041877184
 H         -6.9266342620        3.5225003360       -0.9356137374
 C         -4.8034313320        3.2268275767       -0.9262025806
 H         -4.7432267975        3.6827733298        0.0582520214
 H         -4.5735094025        4.0165622209       -1.6476263240
 C         -3.7180379024        2.1665022113       -1.0835768301
 H         -3.8135911363        1.7012647888       -2.0714279664
 H         -2.7421582308        2.6673415195       -1.0958061476
 H         -7.3694633183        2.2534157867        1.2903573498
 H         -7.0947590927        0.5080904770        1.3076943716
 H         -5.0529228944        2.7263107988        1.6497042660
 H         -5.4243857053        1.3681693436        2.7040610629
 O         -3.9937880029       -0.2356696271        1.8590406496
 C         -3.0665001845       -1.1997392155        1.5297461493
 O         -2.9753433999       -2.1274406798        2.3584801490
 O         -1.9232462524        0.2448532549       -1.5896111567
 C         -1.3476432716       -2.1728451679        0.0530910510
 C          0.0666313275       -1.7635510127        0.3910424625
 C          0.7806677163       -2.4272876202        1.3818209239
 C          2.0833688300       -2.0635346106        1.6745484910
 C          2.6985211291       -1.0305057051        0.9902070980
 C          1.9930721428       -0.3596101611       -0.0001028062
 C          0.6893893672       -0.7317672498       -0.2965013446
 H          0.1419795560       -0.2032692580       -1.0630948899
 N          2.5958319172        0.7094505785       -0.6852736914
 S          4.1244106286        0.4814721489       -1.3378567096
 O          4.2289616830        1.4464108936       -2.4105419964
 O          4.3500451423       -0.9006146568       -1.6932661615
 C          5.2252792495        0.9597225008       -0.0222929457
 C          6.2151934576        0.0930990655        0.3977691295
 C          7.0681431775        0.4924608942        1.4150533070
 C          6.9175499720        1.7450031671        1.9899738783
 C          5.9198034952        2.6047061217        1.5547805661
 C          5.0646311400        2.2119696751        0.5376838811
 H          4.2789766201        2.8503217170        0.1689563288
 H          5.8056565591        3.5779426395        2.0044380962
 H          7.5816546452        2.0535332841        2.7818768036
 H          7.8447052748       -0.1739729509        1.7545200031
 H          6.2907581347       -0.8731835256       -0.0750103503
 H          1.9809760593        1.1506436696       -1.3543663822
 H          3.7125697129       -0.7425624649        1.2148553777
 H          2.6255081902       -2.5881790389        2.4464288723
 H          0.3029148543       -3.2264406361        1.9299154290
 H         -1.6261767202       -2.9927103120        0.7286390633
 C         -1.4297036028       -2.6834091527       -1.3733687584
 C         -0.9158601677       -4.0555292110       -1.6838445523
 C         -2.3897253565       -3.7837092512       -1.7057045003
 H         -2.8972182829       -3.7544295806       -2.6582787164
 H         -2.9931552656       -4.1799363824       -0.9017404986
 H         -0.4061751554       -4.2140281464       -2.6219478157
 H         -0.5202625197       -4.6383367422       -0.8657726004
 H         -1.2836645671       -1.9110928308       -2.1170031841
