  62
        -98.94461749
 C          1.6041521465        1.2755968307       -0.2320822254
 C          1.3979363193       -0.0895027238       -0.5442710198
 C          2.2135584646       -1.0547922900        0.2079634126
 C          3.0387492898       -0.6176058009        1.1746575972
 C          3.9479613851       -1.4888125724        1.9911151338
 C          5.3292850600       -1.6239078658        1.3346139926
 C          5.2756468644       -1.9870575073       -0.1493270637
 H          4.8249528737       -1.1593130991       -0.7014478892
 H          6.3063024583       -2.0833800295       -0.4974011666
 C          4.5079790079       -3.2796793088       -0.4589793665
 H          4.4074560534       -3.8768121335        0.4480712728
 H          5.0875704123       -3.8686789521       -1.1728997294
 C          3.1258135125       -3.0631895491       -1.0775471748
 H          3.2099852074       -2.3891102416       -1.9335200024
 H          2.7663927903       -4.0257165339       -1.4507903562
 C          2.0516815852       -2.5098900616       -0.1323284736
 H          1.0855999006       -2.5959276017       -0.6376126678
 H          2.0094887805       -3.1128706148        0.7772908082
 H          5.8958195103       -2.3827960678        1.8773533210
 H          5.8537946054       -0.6709042533        1.4355600948
 H          4.0649408718       -1.0333315358        2.9761288456
 H          3.4906723966       -2.4693732029        2.1100485862
 O          3.1737183431        0.6963699164        1.4877901310
 C          2.4718713909        1.6648652729        0.7928375752
 O          2.7070562722        2.8318064806        1.1694812269
 H         -1.1196960961        0.6655056575       -0.3530897072
 C         -1.3440724507        1.6510942642        0.0158825712
 C         -0.4428285422        2.6848641009       -0.1968568251
 C         -0.7538679912        3.9535082674        0.2763444077
 C         -1.9335907151        4.1753591930        0.9643651326
 C         -2.8045763638        3.1321046001        1.2179117371
 C         -2.5025595301        1.8573775671        0.7484237450
 N         -3.3676453107        0.7840550756        1.0032698762
 S         -2.8089957758       -0.7506550503        1.4069872808
 O         -3.6670558360       -1.1743308661        2.4970404372
 O         -1.3922813739       -0.7507219296        1.6764208718
 C         -3.2185828791       -1.7266728259       -0.0263083616
 C         -2.2881727444       -1.9541569565       -1.0191001110
 C         -2.6605274704       -2.7061709460       -2.1237461606
 C         -3.9464162266       -3.2136941101       -2.2188053620
 C         -4.8704146096       -2.9761236868       -1.2120820431
 C         -4.5053648634       -2.2263976847       -0.1066932904
 H         -5.1856992672       -2.0301634035        0.7053852609
 H         -5.8702574680       -3.3726990334       -1.2853453809
 H         -4.2279737420       -3.7982325260       -3.0805554762
 H         -1.9370653536       -2.8859693395       -2.9031174709
 H         -1.2914663276       -1.5492354404       -0.9317135130
 H         -4.1640592223        1.0261622978        1.5750654139
 H         -3.7104034521        3.2976317436        1.7817669709
 H         -2.1667347690        5.1651942526        1.3267845525
 H         -0.0555673908        4.7627838047        0.1212858257
 C          0.8643422072        2.4214005841       -0.9074778912
 H          1.4996034890        3.3075695947       -0.7686858018
 C          0.6412121506        2.2235328050       -2.3935903284
 C          0.4760879310        3.4273724728       -3.2696460854
 C          1.7254154837        2.6037494846       -3.3545757420
 H          1.8816948254        1.9846293323       -4.2249695739
 H          2.6362502963        3.0143725708       -2.9427220187
 H         -0.2294682687        3.3766721035       -4.0844129866
 H          0.5424131640        4.3994741847       -2.8049191180
 H          0.0554341485        1.3449439718       -2.6272133955
 O          0.5831952076       -0.5102083486       -1.4085992931
