  62
        -98.94440326
 C         -1.9343689330       -1.3485885921        0.0817796543
 C         -2.2081321908       -0.3902978854       -0.9240187312
 C         -3.5817275330        0.1355332610       -0.9567081227
 C         -4.4856405069       -0.3030760993       -0.0629489614
 C         -5.8976263735        0.1921652615        0.0487785861
 C         -5.9989771456        1.3686042095        1.0297500661
 C         -4.9640759182        2.4672931152        0.7868513236
 H         -5.1515670588        3.2577168712        1.5169249883
 H         -3.9669899024        2.0710653273        0.9935792199
 C         -4.9895301824        3.0621658429       -0.6280897360
 H         -5.9388888138        2.8284475989       -1.1113465255
 H         -4.9239833576        4.1496274026       -0.5516958140
 C         -3.8381987789        2.6092017914       -1.5278787995
 H         -2.8881815666        2.7572725879       -1.0075253429
 H         -3.8282752668        3.2493234126       -2.4142848596
 C         -3.9032324400        1.1554254923       -2.0131571908
 H         -4.8826564977        0.9586263180       -2.4534853272
 H         -3.1454555909        1.0315455934       -2.7922051294
 H         -7.0031687089        1.7906515420        0.9598571741
 H         -5.8604350132        0.9871762627        2.0440469829
 H         -6.2506688295        0.4947071746       -0.9351759874
 H         -6.5208526741       -0.6265820901        0.4124023875
 O         -4.1925192715       -1.2294520539        0.8834001223
 C         -2.9216620280       -1.7657901497        0.9823790457
 O         -2.7935638214       -2.6034739688        1.8972121309
 H          0.3685922833        0.3950437341       -0.5378439816
 C          0.7909912580        0.0981357323        0.4106836516
 C          0.3956219575       -1.1023471291        0.9835160317
 C          0.9426943181       -1.4650367324        2.2084225594
 C          1.8621809958       -0.6462452983        2.8416021671
 C          2.2546629323        0.5490510390        2.2664516782
 C          1.7063154169        0.9227449123        1.0466190560
 N          2.1152027043        2.1310540474        0.4412647180
 S          3.7552310333        2.2155376046        0.0973413492
 O          4.4767723737        2.5263453573        1.3058189070
 O          3.8838039585        3.1699293099       -0.9808405398
 C          4.1708619663        0.5711106695       -0.4546510391
 C          3.6899261455        0.1565604287       -1.6806996313
 C          3.9356273344       -1.1428195209       -2.0921139159
 C          4.6477766254       -2.0032728174       -1.2707049240
 C          5.1233234624       -1.5718159046       -0.0424913669
 C          4.8813451160       -0.2726855504        0.3741436673
 H          5.2312700911        0.1035845557        1.3212821836
 H          5.6765084656       -2.2439570431        0.5933068279
 H          4.8337372701       -3.0164933342       -1.5907172268
 H          3.5657876905       -1.4790576028       -3.0476901085
 H          3.1416877602        0.8527831100       -2.2955195004
 H          1.5809209876        2.3463676657       -0.3892887628
 H          2.9765630890        1.1961975076        2.7380855789
 H          2.2783313960       -0.9421254975        3.7924433615
 H          0.6348768174       -2.3926612686        2.6685673660
 C         -0.5760610305       -2.0089700200        0.2668944821
 H         -0.7595732858       -2.8783456919        0.9117255065
 C          0.0289995141       -2.4986668375       -1.0360375338
 C          1.0772047240       -3.5673228492       -0.9910723557
 C         -0.2900555649       -3.8795131467       -1.5199782976
 H         -0.4128161580       -4.0373972564       -2.5809775816
 H         -0.9490172998       -4.4823026598       -0.9117147244
 H          1.8982573406       -3.5102229367       -1.6881282577
 H          1.3479455887       -3.9610701392       -0.0233636545
 H          0.1312433712       -1.7217379119       -1.7815618956
 O         -1.3671976132        0.0257148919       -1.7670350231
