  62
        -98.94458105
 C         -1.5136764901       -1.5595908114       -0.5078788711
 C         -1.4125013106       -0.1868286514       -0.8435850311
 C         -2.6412510607        0.6062317883       -0.6740001908
 C         -3.7669747305        0.0064188479       -0.2486677505
 C         -5.0689347206        0.7053859775        0.0134626598
 C         -5.1674987504        1.1666032774        1.4742654898
 C         -3.9357717605        1.9276550478        1.9647337596
 H         -4.1310681204        2.2316856576        2.9954567297
 H         -3.0815484803        1.2468362380        1.9873360994
 C         -3.5781833410        3.1617863779        1.1251615896
 H         -4.4377805513        3.4619599477        0.5248437498
 H         -3.3503055211        3.9890771579        1.8004325396
 C         -2.3613774512        2.9808611383        0.2156568593
 H         -2.0727596216        3.9653879084       -0.1597697307
 H         -1.5219447810        2.5909766785        0.7965370291
 C         -2.5631877012        2.0709502983       -1.0019487907
 H         -3.4478886714        2.3877772781       -1.5578240605
 H         -1.6876223214        2.1846141586       -1.6475614909
 H         -5.3011057900        0.2861521574        2.1072025298
 H         -6.0528690806        1.7966005672        1.5783965701
 H         -5.1582432810        1.5592874375       -0.6551342801
 H         -5.8816047305        0.0069103773       -0.1933494200
 O         -3.8333430100       -1.3188252621        0.0390298494
 C         -2.7142118498       -2.1247179418       -0.0670583309
 O         -2.9135797794       -3.3163558119        0.2459194591
 H          1.4763358997       -0.5003291306       -0.2127547418
 C          1.4678541501       -1.2033268007        0.6031791682
 C          0.6006249604       -2.2865129509        0.5731758883
 C          0.5791903909       -3.1574262210        1.6578327083
 C          1.4146222010       -2.9540631708        2.7409892881
 C          2.2931079607       -1.8858833105        2.7579246280
 C          2.3142294603       -1.0023710805        1.6839002980
 N          3.1651165899        0.1088901598        1.6939242979
 S          3.8268186994        0.7169851200        0.2834024777
 O          4.1065709995       -0.3296686698       -0.6717128724
 O          4.9772584093        1.4719619003        0.7401842375
 C          2.6252519890        1.8625168197       -0.3522116319
 C          2.3411168387        1.8711217697       -1.7013824718
 C          1.4527200083        2.8132513195       -2.1927241316
 C          0.8698209482        3.7262084693       -1.3299652914
 C          1.1649715885        3.7037284593        0.0244761785
 C          2.0531385089        2.7651130295        0.5213796883
 H          2.3067812892        2.7167322395        1.5676723882
 H          0.7031588985        4.4127228291        0.6932040687
 H          0.1764832879        4.4575338691       -1.7155668812
 H          1.2131931480        2.8242532495       -3.2441230415
 H          2.8079852387        1.1351250599       -2.3369226320
 H          3.8121960801        0.1531404699        2.4670931777
 H          2.9533712709       -1.7306071104        3.5977980978
 H          1.3887171514       -3.6382762808        3.5757265281
 H         -0.1093957089       -3.9904836812        1.6483269084
 C         -0.3309541198       -2.5131169211       -0.5937642415
 H         -0.7575509195       -3.5199519412       -0.4887910714
 C          0.3936974798       -2.4406327308       -1.9227056916
 C          1.2515554901       -3.5946340806       -2.3420275219
 C         -0.0447052302       -3.3287297709       -3.0461457916
 H         -0.0165960105       -2.9392874608       -4.0527339516
 H         -0.8718324100       -3.9988984111       -2.8604353014
 H          2.1756683099       -3.3866339503       -2.8595468021
 H          1.3027491504       -4.4458858106       -1.6796018019
 H          0.7302686195       -1.4458671607       -2.1821714816
 O         -0.3674882008        0.3685207689       -1.2703697813
