  62
        -98.94038667
 C         -1.0755322853       -1.3361417733       -0.7692885041
 C         -2.3802009856       -1.4622463289       -0.2316378720
 C         -3.2943444850       -0.3188780293       -0.3932832393
 C         -2.8494533065        0.7926437073       -1.0077632639
 C         -3.5353587906        2.1044768189       -1.3304704085
 C         -4.9138052035        2.4233700347       -0.7593701247
 C         -4.9297466859        2.6928382122        0.7456833701
 H         -4.4458495711        3.6557146760        0.9288095729
 H         -5.9692779796        2.7757086172        1.0702019461
 C         -4.2198837094        1.6551133866        1.6121084231
 H         -4.2694208917        1.9962373260        2.6501553611
 H         -3.1614320471        1.6098593746        1.3441439073
 C         -4.8089799525        0.2473135393        1.5585808213
 H         -5.8689090190        0.2826665307        1.8190286402
 H         -4.2969695836       -0.3525825546        2.3161630583
 C         -4.6594033444       -0.4794228344        0.2127123331
 H         -4.7875495308       -1.5508468174        0.3935958433
 H         -5.4313771741       -0.1715649272       -0.4884286985
 H         -5.2571474066        3.3331725522       -1.2592508087
 H         -5.6175246193        1.6376895974       -1.0180214800
 H         -2.8332959919        2.8892546596       -1.0293821324
 H         -3.5933302396        2.1455970918       -2.4237484918
 O         -1.5863312873        0.8696524570       -1.5144753403
 C         -0.6686583024       -0.1630544253       -1.4033088968
 O          0.4341985298        0.1025106077       -1.9194974216
 O         -2.7768085348       -2.5064111971        0.3548776896
 C         -0.1361712430       -2.5112601083       -0.5533025288
 C          0.6717085442       -2.2885542003        0.7033657949
 C          0.6487868312       -3.2030132441        1.7495039190
 C          1.3568653738       -2.9566217931        2.9128200099
 C          2.0766205565       -1.7851384105        3.0641363040
 C          2.1053989326       -0.8653292198        2.0217776050
 C          1.4314724860       -1.1358310822        0.8413952267
 H          1.4639723870       -0.4185008339        0.0378473888
 N          2.8141283787        0.3394906595        2.1321766456
 S          2.1968566680        1.7230913225        1.4136815399
 O          2.8225458211        2.8088179087        2.1450595124
 O          0.7511674401        1.7300592722        1.4159944511
 C          2.8517895975        1.7217230101       -0.2396905392
 C          4.0554142250        1.0945817999       -0.4917164756
 C          4.5804374719        1.1482885357       -1.7724877302
 C          3.9014301811        1.8299015991       -2.7706639001
 C          2.6977204710        2.4592282813       -2.4986509086
 C          2.1650743851        2.4060159596       -1.2208380156
 H          1.2208805264        2.8652617875       -0.9739934343
 H          2.1637063947        2.9811473191       -3.2764406293
 H          4.3095844928        1.8673185662       -3.7686098126
 H          5.5146065384        0.6551070677       -1.9890441754
 H          4.5527756447        0.5671895811        0.3053748677
 H          3.2064359161        0.5300597602        3.0427276987
 H          2.6052507135       -1.5775796181        3.9820563229
 H          1.3313052679       -3.6739972196        3.7190164316
 H          0.0540234604       -4.0995837258        1.6558033216
 H         -0.7885390171       -3.3787418277       -0.3828641083
 C          0.7687689713       -2.8120523942       -1.7308098758
 C          1.3327290073       -4.1923055216       -1.8790492240
 C          0.2759136687       -3.7084750388       -2.8252222444
 H          0.5548258722       -3.4777094531       -3.8421400095
 H         -0.7208994462       -4.1136800245       -2.7279839480
 H          2.3417844166       -4.2978111944       -2.2460536437
 H          1.0524273944       -4.9301765757       -1.1427464358
 H          1.3941375537       -1.9765023866       -2.0159827735
