  62
        -98.93753275
 C         -2.0455430379       -0.9237759959        0.0255431995
 C         -2.2668982504        0.0803599424        0.9924777072
 C         -2.4170225865        1.4627369196        0.5013281957
 C         -2.3214899880        1.6914692863       -0.8218271165
 C         -2.4617933983        3.0015848734       -1.5503627985
 C         -3.9228488152        3.4675701677       -1.6652896613
 C         -4.7548763353        3.3002265723       -0.3964622412
 H         -5.7907087734        3.5468367528       -0.6435775364
 H         -4.7342915111        2.2525720360       -0.0909631897
 C         -4.3335282914        4.1795624000        0.7781671060
 H         -5.0527649979        4.0130622819        1.5840262597
 H         -4.4015685420        5.2288347135        0.4825775354
 C         -2.9311970227        3.9245639298        1.3339113554
 H         -2.8588028784        4.4490396624        2.2913952982
 H         -2.1687942765        4.3535830640        0.6891002295
 C         -2.6120208390        2.4599408341        1.6183177432
 H         -1.6897423822        2.4132987755        2.2121741347
 H         -3.3922122181        2.0404265464        2.2642395893
 H         -3.9273424970        4.5149217461       -1.9713532279
 H         -4.4001747114        2.8819858503       -2.4545097738
 H         -1.8452690397        3.7564120069       -1.0708324400
 H         -2.0652045811        2.8423593347       -2.5555191925
 O         -2.1145331030        0.6884544903       -1.7219613668
 C         -1.9416131169       -0.6253900966       -1.3321758978
 O         -1.7173202490       -1.4177634199       -2.2680456308
 O         -2.3384120837       -0.1639627096        2.2302782839
 C         -1.8026161555       -2.3487949389        0.4813354481
 C         -0.4079496606       -2.7910622321        0.1043941713
 C         -0.0959950425       -4.1035206607       -0.2276981053
 C          1.2054039803       -4.4541421611       -0.5448391567
 C          2.2164195335       -3.5117422040       -0.5463146333
 C          1.9131574298       -2.1928131155       -0.2215720379
 C          0.6156948002       -1.8524990393        0.1200608985
 H          0.3968921297       -0.8298502826        0.3909759509
 N          2.9049873546       -1.2006058851       -0.2768984837
 S          2.6642459686        0.3205162884        0.3925125479
 O          2.3892643428        0.2187679782        1.8102902273
 O          1.6972377809        1.0382242619       -0.4006953909
 C          4.2857871263        1.0172212539        0.1395971963
 C          5.1925962959        1.0337083882        1.1823293831
 C          6.4573646118        1.5571549154        0.9633264469
 C          6.7929343806        2.0502184512       -0.2885232066
 C          5.8718251936        2.0281439485       -1.3254711951
 C          4.6054815718        1.5071825816       -1.1126682310
 H          3.8527194228        1.4775915681       -1.8834370254
 H          6.1345079885        2.4151972951       -2.2967553310
 H          7.7773510993        2.4573358594       -0.4567513285
 H          7.1739929838        1.5788657006        1.7683392700
 H          4.8828523462        0.6481890054        2.1403246872
 H          3.8441085915       -1.5465036730       -0.1430829946
 H          3.2271498612       -3.7853741697       -0.8061574600
 H          1.4344064156       -5.4779999205       -0.7987038707
 H         -0.8724715493       -4.8509441490       -0.2397702893
 H         -1.8629761639       -2.3183621600        1.5808505625
 C         -2.8818476136       -3.2748575899       -0.0418778140
 C         -3.3419315434       -4.4458582948        0.7727778936
 C         -4.2311525628       -3.2512965377        0.6097344936
 H         -5.1072523162       -3.3371122150       -0.0151443635
 H         -4.3593862088       -2.5885514659        1.4534027331
 H         -3.6118008291       -5.3563372564        0.2592515910
 H         -2.8769491256       -4.5997611512        1.7349533129
 H         -2.8480353855       -3.3789231347       -1.1205055273
