  62
        -98.94011936
 C         -1.7313827698       -1.2245170928       -0.6540816945
 C         -1.5440966710       -0.2122543811        0.3208374645
 C         -2.7651291280        0.2598484661        0.9922500812
 C         -3.9532888924       -0.2997043999        0.7065460035
 C         -5.2778084695        0.0644245124        1.3203429159
 C         -5.9596941678        1.2717480318        0.6619230849
 C         -5.3179084919        2.6268781645        0.9630580314
 H         -5.2046546763        2.7420762934        2.0415197953
 H         -6.0174380034        3.3941999019        0.6254735184
 C         -3.9651972986        2.8550455264        0.2740426656
 H         -3.9483002871        3.8511853950       -0.1735905178
 H         -3.8459879807        2.1360377595       -0.5396627067
 C         -2.7558336086        2.7555167288        1.2042852663
 H         -2.7959917220        3.5561872464        1.9461921639
 H         -1.8503893852        2.8962270452        0.6083619522
 C         -2.6349582922        1.4142273746        1.9396737651
 H         -3.3855152552        1.3478724122        2.7272616363
 H         -1.6434720540        1.3586548016        2.3975440339
 H         -6.9921614317        1.2959547246        1.0180336764
 H         -5.9849292402        1.1123311606       -0.4185457982
 H         -5.1475630716        0.2544583711        2.3862308486
 H         -5.9262543418       -0.8060870476        1.1993320665
 O         -4.0831443280       -1.3117354711       -0.1920662767
 C         -2.9880600097       -1.7881256778       -0.8945852905
 O         -3.2587963135       -2.7102386133       -1.6900367269
 O         -0.4321372917        0.2893283436        0.6214874124
 C         -0.5719871849       -1.8117029646       -1.4422135243
 C          0.5257854174       -2.2402482207       -0.5006716295
 C          0.3431115849       -3.4052561260        0.2393806395
 C          1.3201302490       -3.8543361674        1.1063123263
 C          2.4951598449       -3.1401523879        1.2583987466
 C          2.6815490281       -1.9665041299        0.5393189493
 C          1.7034244631       -1.5250816821       -0.3422093246
 H          1.8573423631       -0.6096512957       -0.8893414375
 N          3.8745874173       -1.2254168728        0.6717920261
 S          3.7625814707        0.3231377941        1.3289392705
 O          5.1010235942        0.5909084698        1.8195040717
 O          2.7102020958        0.4041540061        2.3140343758
 C          3.4516613585        1.3958701391       -0.0542304755
 C          4.4935420072        1.6216150259       -0.9332386973
 C          4.2963430605        2.4860580093       -1.9971956844
 C          3.0697279817        3.1141529801       -2.1554895552
 C          2.0356852052        2.8747745902       -1.2637019035
 C          2.2212018433        2.0028200530       -0.2011132406
 H          1.4309154236        1.7645825482        0.4931217914
 H          1.0806615078        3.3598375897       -1.3909185909
 H          2.9166425632        3.7938198255       -2.9792946379
 H          5.0967485060        2.6716942652       -2.6952365114
 H          5.4347565754        1.1272582636       -0.7590971154
 H          4.5968611745       -1.7277699787        1.1710971253
 H          3.2626851528       -3.4837729660        1.9365046037
 H          1.1665292952       -4.7627863531        1.6693408271
 H         -0.5805368071       -3.9565463814        0.1233454036
 H         -0.9831869496       -2.7244973271       -1.9032807585
 C         -0.0747995926       -0.9410602054       -2.5862582797
 C         -1.0591285457       -0.2502488237       -3.4822830910
 C         -0.1653395825        0.5530462119       -2.5886291684
 H          0.6451865548        1.1077151180       -3.0379139789
 H         -0.5969744835        1.0344144683       -1.7263155281
 H         -0.8730518555       -0.2411127301       -4.5454962381
 H         -2.1048473295       -0.3323501099       -3.2220898145
 H          0.7947521134       -1.3754001161       -3.0699972339
