  62
        -98.94321201
 C         -2.5083503380       -1.0341948266       -0.1713120052
 C         -3.6654201284       -0.8965939042        0.6324721804
 C         -4.6989276532        0.0126223492        0.1208229718
 C         -4.4997755475        0.6396908533       -1.0531664631
 C         -5.4414807808        1.6374717305       -1.6613277962
 C         -5.0961052883        3.0667242885       -1.2198886374
 C         -4.9086942109        3.2188296860        0.2896707464
 H         -4.6989955244        4.2723769862        0.4867376848
 H         -4.0263945956        2.6531401438        0.5979235441
 C         -6.1151481661        2.7724465400        1.1274135042
 H         -7.0050287825        2.7232589505        0.4988672886
 H         -6.3036737178        3.5231751750        1.8977674513
 C         -5.9286117311        1.4348900822        1.8461159733
 H         -6.7392098587        1.3221721530        2.5710426591
 H         -4.9897997020        1.4474289802        2.4056450274
 C         -5.9392807447        0.1892157904        0.9510028811
 H         -6.8288941083        0.1985051405        0.3180610859
 H         -5.9906483876       -0.6876451792        1.6031372345
 H         -5.8906721089        3.7339315189       -1.5587964074
 H         -4.1675310350        3.3657769696       -1.7114990607
 H         -6.4609149581        1.3921010877       -1.3700562838
 H         -5.3575078520        1.5717710944       -2.7473385988
 O         -3.3823795473        0.4700118461       -1.8046716240
 C         -2.3541633026       -0.3600339275       -1.3826089175
 O         -1.3852705340       -0.4134521301       -2.1630938339
 O         -3.8236081404       -1.5023243571        1.7266667399
 C         -1.3900618456       -1.9431509973        0.3076423171
 C         -0.1331315655       -1.1320738938        0.5025751706
 C         -0.1595194542       -0.0724098256        1.4066055617
 C          0.9592704884        0.7103017650        1.6121342163
 C          2.1309328113        0.4576648809        0.9188897834
 C          2.1720046285       -0.6004184894        0.0227647563
 C          1.0461717903       -1.3921481041       -0.1751738748
 H          1.0949060510       -2.2081250448       -0.8790528960
 N          3.3491622003       -0.8552450958       -0.6960952608
 S          4.8263908695       -0.8334997571        0.0919200478
 O          5.6989569922       -1.6490430619       -0.7242565289
 O          4.6951302905       -1.2235523181        1.4765666039
 C          5.3499558909        0.8647185728       -0.0185656400
 C          5.7323035406        1.5431714753        1.1219834767
 C          6.1477273051        2.8610389377        1.0106905422
 C          6.1746757289        3.4732225923       -0.2329003268
 C          5.7903889122        2.7769218821       -1.3692778551
 C          5.3748435679        1.4592028277       -1.2648699270
 H          5.0696128520        0.8850590228       -2.1238262829
 H          5.8118408973        3.2564662552       -2.3347013356
 H          6.4967957397        4.4991142371       -0.3175257572
 H          6.4471134221        3.4039586684        1.8928207383
 H          5.6898941927        1.0285318982        2.0688015854
 H          3.2820153092       -1.6266064416       -1.3432986302
 H          3.0062522847        1.0676295929        1.0706569774
 H          0.9210908247        1.5285223309        2.3153404734
 H         -1.0759155566        0.1281180863        1.9451537550
 H         -1.7143980189       -2.3093881952        1.2926865079
 C         -1.2268427244       -3.1281234177       -0.6197631096
 C         -0.5913269983       -4.3894169446       -0.1177375639
 C         -2.0641053297       -4.3491957435       -0.3915099698
 H         -2.4444802488       -4.8812465590       -1.2505472453
 H         -2.7421033539       -4.3367376596        0.4492073027
 H          0.0392366872       -4.9540493809       -0.7882184750
 H         -0.2659412252       -4.4087102870        0.9115637648
 H         -1.0441992026       -2.8353608332       -1.6476874079
