  62
        -98.94208469
 C         -2.7937123489       -0.9980607046        0.3494133890
 C         -2.3986283464       -0.3104671694       -0.8271959326
 C         -2.8387297655        1.0883831861       -0.9230708034
 C         -3.6373513415        1.6111475023        0.0237930555
 C         -4.1382358766        3.0283025157        0.0780022828
 C         -3.1506496174        3.9933535008        0.7498098469
 C         -1.9025684840        4.3259749672       -0.0703515126
 H         -2.2017792569        4.6719388051       -1.0602182680
 H         -1.4017074219        5.1578649405        0.4287799196
 C         -0.9045771130        3.1669933588       -0.2148786182
 H         -1.1166905768        2.4042903708        0.5398538278
 H          0.1127120225        3.5203087947       -0.0240816850
 C         -0.8980664590        2.5080460340       -1.5946782452
 H         -0.1561644781        1.7038246352       -1.5846229383
 H         -0.5794037512        3.2377385954       -2.3427080576
 C         -2.2525433495        1.9223256999       -2.0210568157
 H         -2.9356436870        2.7229137760       -2.3039997242
 H         -2.0881963084        1.2753701151       -2.8858408925
 H         -2.8509508927        3.5710275301        1.7120719742
 H         -3.6856367888        4.9247896587        0.9479324299
 H         -5.0590813149        3.0148196851        0.6648140271
 H         -4.3684389575        3.3793254237       -0.9275395937
 O         -4.0855067371        0.8832344048        1.0815320680
 C         -3.6124185669       -0.4017077634        1.3099711598
 O         -3.9877642632       -0.8983652097        2.3911273246
 O         -1.6984568407       -0.8147105111       -1.7406089632
 C         -2.2061692107       -2.3560561859        0.7002811815
 C         -0.7200962289       -2.3102890537        0.4280331644
 C         -0.0343069967       -3.2471932806       -0.3315614892
 C          1.3202685859       -3.0936489836       -0.5762576690
 C          2.0159684322       -2.0064780641       -0.0812843496
 C          1.3385187465       -1.0620720563        0.6790178943
 C         -0.0088333298       -1.2337035686        0.9457312349
 H         -0.5335641265       -0.4906426276        1.5366810498
 N          2.0281438188        0.0637879886        1.1698775095
 S          2.8277628780        1.0193533514        0.0365020837
 O          2.8200170374        2.3548481929        0.5940548903
 O          2.2704622860        0.8661607967       -1.2852171630
 C          4.4899344864        0.3821563298        0.0768654616
 C          5.1748644895        0.4273349489        1.2753727544
 C          6.4661545337       -0.0722626824        1.3276216062
 C          7.0478900759       -0.6046329470        0.1864853091
 C          6.3483434378       -0.6397101091       -1.0099953056
 C          5.0557280628       -0.1417738152       -1.0685632931
 H          4.4713942121       -0.1510564519       -1.9750940933
 H          6.8024118543       -1.0529533446       -1.8962789092
 H          8.0527791668       -0.9939978546        0.2297431314
 H          7.0135202873       -0.0460655581        2.2560211971
 H          4.6870411678        0.8534511069        2.1361328043
 H          1.4569194609        0.6500245400        1.7620988223
 H          3.0649166036       -1.8711429047       -0.2896901966
 H          1.8384807260       -3.8264153601       -1.1759288625
 H         -0.5641663730       -4.0818194677       -0.7601480332
 H         -2.3472678907       -2.4519080497        1.7903351258
 C         -2.9091087776       -3.5474959818        0.0697347940
 C         -4.3434077222       -3.4572638799       -0.3562262587
 C         -3.2629612448       -3.5874411042       -1.3852178454
 H         -3.1681508042       -4.5272369426       -1.9094084511
 H         -3.0089317134       -2.7254794466       -1.9811407971
 H         -4.9863531406       -4.3047169257       -0.1709427665
 H         -4.8381173704       -2.5026431027       -0.2489885720
 H         -2.6049535493       -4.4849906683        0.5248813042
