  62
        -98.94105618
 C         -2.0296816078       -1.2410705295        0.1126425537
 C         -2.8168230811       -0.6761743463        1.1480295046
 C         -3.9688985440        0.1305264351        0.7253350448
 C         -4.1965298883        0.3104335037       -0.5882862951
 C         -5.2970180371        1.1554246152       -1.1601510192
 C         -4.8265232005        2.5989344649       -1.3872068671
 C         -4.1226704837        3.2168534662       -0.1788582175
 H         -3.1841418955        2.6854951604       -0.0032834067
 H         -3.8631788996        4.2442511130       -0.4438378550
 C         -4.9554965754        3.2155451449        1.1108773777
 H         -4.8662458385        4.1949659742        1.5856670284
 H         -6.0088656896        3.0671356018        0.8708038515
 C         -4.5208481705        2.1770216116        2.1467826741
 H         -3.4454066425        2.2630022639        2.3224269505
 H         -5.0246160572        2.4064695050        3.0894896230
 C         -4.8381461750        0.7162276165        1.8024956174
 H         -4.6513866553        0.1169275046        2.6984643150
 H         -5.8936362479        0.6216237169        1.5395467352
 H         -4.1307809506        2.6081757688       -2.2296217836
 H         -5.6926426999        3.2065415408       -1.6554445009
 H         -5.5984055895        0.7266906731       -2.1173812922
 H         -6.1485882770        1.1418371494       -0.4825985768
 O         -3.4052815390       -0.2205557053       -1.5531650037
 C         -2.2940503750       -0.9942681869       -1.2358370064
 O         -1.6522334280       -1.3810489941       -2.2287557688
 O         -2.5603592813       -0.8321809762        2.3722001205
 C         -0.8206168029       -2.0642333627        0.5205277343
 C          0.3982670128       -1.6031622035       -0.2390573196
 C          1.1855644745       -2.4370648352       -1.0206458617
 C          2.2833296360       -1.9323905303       -1.6969519290
 C          2.6214107142       -0.5953003166       -1.6084277561
 C          1.8452509333        0.2468883859       -0.8212829533
 C          0.7547137521       -0.2633480626       -0.1349164747
 H          0.1482060281        0.3957385031        0.4748544984
 N          2.1746631626        1.6081665458       -0.7225804470
 S          3.7810260422        2.0418348433       -0.5633107559
 O          3.7578176968        3.3224583692        0.1084266527
 O          4.4240005602        2.0199637797       -1.8534491826
 C          4.5036946522        0.7978016809        0.4917128225
 C          3.9872225577        0.6436783675        1.7630999121
 C          4.5170608909       -0.3350101550        2.5878412893
 C          5.5497242221       -1.1389745715        2.1293887679
 C          6.0608540607       -0.9683457429        0.8524207603
 C          5.5331059858        0.0078974421        0.0224026438
 H          5.8991108553        0.1735941247       -0.9777253758
 H          6.8651261753       -1.5933561578        0.4994594840
 H          5.9580051079       -1.9018529708        2.7731980408
 H          4.1209131440       -0.4683841692        3.5817643884
 H          3.1886682651        1.2893971917        2.0921182339
 H          1.5828951730        2.1353539629       -0.0987337822
 H          3.4581766201       -0.1860827943       -2.1507199684
 H          2.8795043892       -2.5896702991       -2.3112383345
 H          0.9252357015       -3.4771370180       -1.1245360132
 H         -0.6693735622       -1.8098103031        1.5834201959
 C         -1.0363709852       -3.5691290026        0.4696154336
 C         -2.4073003933       -4.1586274376        0.6088532965
 C         -1.6809887971       -4.2522104098       -0.6977966073
 H         -1.2989909174       -5.2159687078       -1.0017094406
 H         -2.0110496014       -3.6354215286       -1.5185391045
 H         -2.5230418677       -5.0540633874        1.2009837910
 H         -3.2420734106       -3.4764936652        0.6819240100
 H         -0.2339336767       -4.1079839290        0.9639650873
