  62
        -98.94312510
 C         -1.2264378859       -1.1116723023       -0.0447650409
 C         -1.7598262113       -0.1090487676        0.8011593116
 C         -2.6469395989        0.8707563470        0.1605824820
 C         -2.8948317849        0.7692471338       -1.1579540192
 C         -3.8213137030        1.6658370836       -1.9262661409
 C         -5.2482345870        1.1001456091       -1.9505840708
 C         -5.7724391150        0.6859666126       -0.5755160054
 H         -6.7963017114        0.3310859106       -0.7119357398
 H         -5.1856536042       -0.1601649744       -0.2106715235
 C         -5.7547024335        1.8056752495        0.4745442549
 H         -5.6716254385        2.7747743477       -0.0189334012
 H         -6.7056288786        1.7967286102        1.0114412397
 C         -4.6491007045        1.6737233574        1.5235330600
 H         -4.8599259926        2.3819639735        2.3291491947
 H         -4.6732494764        0.6701535175        1.9553497805
 C         -3.2238700166        1.9523873930        1.0297154149
 H         -3.1949876371        2.9161324805        0.5172429262
 H         -2.5740212531        2.0067639994        1.9076418864
 H         -5.9102410393        1.8525627059       -2.3832620074
 H         -5.2615490094        0.2223428111       -2.6009477791
 H         -3.8202373463        2.6556776615       -1.4736719098
 H         -3.4541991721        1.7447786356       -2.9511332492
 O         -2.3568705850       -0.2009635475       -1.9413695178
 C         -1.5095254632       -1.1659062687       -1.4096946265
 O         -1.0798475480       -1.9840169576       -2.2445665174
 O         -1.5028881147       -0.0369384104        2.0312341151
 C         -0.2877018649       -2.1326002487        0.5609358499
 C          1.1218610600       -2.0155154344        0.0293097471
 C          2.0585332572       -3.0222171643        0.2455357135
 C          3.3672378896       -2.8782593995       -0.1797695211
 C          3.7760203957       -1.7309925817       -0.8380862336
 C          2.8468293759       -0.7301736920       -1.0729720429
 C          1.5399045805       -0.8692869470       -0.6296898744
 H          0.8342714333       -0.0667824384       -0.8051087686
 N          3.2609471382        0.4631293710       -1.7213849524
 S          3.9892813155        1.5490140944       -0.6695364535
 O          4.1256948211        2.7875242383       -1.4021079709
 O          5.2056691948        0.9547478752       -0.1786343510
 C          2.8131949033        1.7362846769        0.6574711763
 C          1.8106620428        2.6769351438        0.5308092314
 C          0.8319179757        2.7497171973        1.5087090970
 C          0.8648848841        1.8765269129        2.5849400107
 C          1.8758783617        0.9347173280        2.6942724829
 C          2.8587779824        0.8575733285        1.7212039258
 H          3.6583490748        0.1358772142        1.7679410713
 H          1.8900170140        0.2515677429        3.5279657159
 H          0.0902606632        1.9164296080        3.3336194569
 H          0.0398429206        3.4767697647        1.4234698179
 H          1.8194451228        3.3376347313       -0.3221005954
 H          2.4968039252        0.9355257990       -2.1853842357
 H          4.7941428823       -1.5906234072       -1.1618639043
 H          4.0792904964       -3.6680582714        0.0040908757
 H          1.7578357027       -3.9228013624        0.7563910612
 H         -0.2532533915       -1.8880065772        1.6341706897
 C         -0.8392733836       -3.5380171562        0.4030135266
 C         -0.7161709409       -4.5402945733        1.5105356427
 C         -2.0485304199       -3.9319599748        1.1962245467
 H         -2.8019478333       -4.5420567416        0.7211149922
 H         -2.4492286910       -3.1997259247        1.8823000169
 H         -0.5529343636       -5.5755708452        1.2514775308
 H         -0.2280255525       -4.2282765990        2.4216621507
 H         -0.7775836917       -3.8953962672       -0.6184933565
