  62
        -98.94686154
 C         -1.6791462214       -1.2377077106        0.3837394388
 C         -1.3669544269       -0.1859013959       -0.5113707111
 C         -2.0456221582        1.0889158253       -0.2591603017
 C         -2.8471938435        1.2183261805        0.8128322950
 C         -3.5819436306        2.4652711099        1.2243755219
 C         -4.9165752909        2.6766374818        0.4957554775
 C         -4.8007378576        3.0970853944       -0.9699433336
 H         -5.7932470436        3.4218471412       -1.2884413715
 H         -4.1356218737        3.9577309471       -1.0467055456
 C         -4.3185892647        1.9851535741       -1.9118776191
 H         -4.4299001815        1.0170682600       -1.4182346153
 H         -4.9485517972        1.9654073040       -2.8038595726
 C         -2.8716600847        2.1365917090       -2.3812893710
 H         -2.7751537438        3.0400268891       -2.9872029800
 H         -2.6239148372        1.2787527504       -3.0111286007
 C         -1.8447383882        2.2008663899       -1.2430413135
 H         -0.8440849188        2.0886809827       -1.6678712026
 H         -1.8956372909        3.1656135739       -0.7381728643
 H         -5.5009956700        1.7563430560        0.5665135379
 H         -5.4593163189        3.4572804973        1.0338210237
 H         -3.7837875291        2.3675201231        2.2935778402
 H         -2.9374090984        3.3322842691        1.0740785855
 O         -3.0711193606        0.2009567009        1.6885631453
 C         -2.4976235907       -1.0455567917        1.4940705417
 O         -2.7824650923       -1.8866009297        2.3739202622
 H          0.3983651616       -1.1526570395        1.9026702475
 C          1.0337929780       -1.5975540762        1.1456995822
 C          0.4686486461       -2.4187561143        0.1772035665
 C          1.3041353907       -2.9825569303       -0.7781156559
 C          2.6583365933       -2.6933903057       -0.7886391471
 C          3.2023570123       -1.8214659484        0.1371200188
 C          2.3783395051       -1.2763581406        1.1119689076
 N          2.9219499024       -0.3046790221        2.0058997538
 S          2.5283990111        1.2493887999        1.4612167229
 O          3.1880723224        2.1617819476        2.3725739914
 O          1.0949457589        1.4246270985        1.3500614066
 C          3.3096630800        1.2950101926       -0.1330462632
 C          2.5930427903        0.9304095059       -1.2556090478
 C          3.2411844637        0.9214767421       -2.4814665674
 C          4.5804952011        1.2701706090       -2.5619196837
 C          5.2844818987        1.6324308770       -1.4229367373
 C          4.6454998248        1.6426387813       -0.1939443831
 H          5.1467134020        1.9168759311        0.7197770562
 H          6.3261458668        1.9023559496       -1.4887351691
 H          5.0780983196        1.2580871736       -3.5188844364
 H          2.6907556594        0.6340652341       -3.3628769896
 H          1.5533944277        0.6528831330       -1.1633509927
 H          2.5575640632       -0.3975448563        2.9458438960
 H          4.2460221350       -1.5535953611        0.1151649392
 H          3.2918831075       -3.1320461359       -1.5436838849
 H          0.8891578058       -3.6344805956       -1.5293434011
 C         -1.0291283125       -2.5991570338        0.2004299616
 H         -1.3001061332       -3.1919903570        1.0863478478
 C         -1.5759249409       -3.2805680699       -1.0365019413
 C         -1.6247468289       -4.7761027817       -1.1174753116
 C         -2.8909143314       -3.9928249599       -0.9483488398
 H         -3.5724718175       -3.9228514475       -1.7827151716
 H         -3.3813468662       -4.0081890958        0.0144459762
 H         -1.4408240413       -5.2475572685       -2.0709299681
 H         -1.2596326932       -5.3352058413       -0.2693522663
 H         -1.3691963264       -2.7223888497       -1.9423575707
 O         -0.5644651981       -0.3071669337       -1.4729668798
