  62
        -98.94275567
 C         -1.3685639703       -0.7026066903        0.4320973114
 C         -2.0356883504       -0.5146013124       -0.8022394989
 C         -2.9704158403        0.6200734476       -0.8552474907
 C         -3.1079742101        1.4142500595        0.2223079179
 C         -4.0576569000        2.5722587797        0.3196374560
 C         -5.4138480500        2.1314333908        0.8877456969
 C         -5.9981174102        0.8964920897        0.2019687691
 H         -5.3594447802        0.0356835600        0.4125826705
 H         -6.9681721602        0.6971893206        0.6623785996
 C         -6.1723368803        1.0369399271       -1.3167427011
 H         -7.1557588204        0.6513588467       -1.5937249403
 H         -6.1479054703        2.0906893266       -1.5971602729
 C         -5.1427184505        0.2679211455       -2.1469126699
 H         -5.4836201806        0.2563077138       -3.1856440498
 H         -5.0983469405       -0.7695115139       -1.8060115581
 C         -3.7188893104        0.8384567154       -2.1398645910
 H         -3.1466543106        0.3145496640       -2.9115337402
 H         -3.7468549104        1.8998570150       -2.3959307829
 H         -5.2880421399        1.9062994727        1.9492835373
 H         -6.1128618100        2.9649350807        0.7979269555
 H         -3.6216371299        3.3203917709        0.9840073846
 H         -4.1907845201        3.0112952580       -0.6672956048
 O         -2.4187287700        1.2247297914        1.3764462882
 C         -1.5399270801        0.1606861816        1.5142313199
 O         -0.9741957900        0.0988606235        2.6229332300
 H          0.7377573197        0.3979345182       -0.3261181007
 C          1.2283019396       -0.4819408125       -0.7254208593
 C          0.7546550695       -1.7394329719       -0.3760413070
 C          1.4093031194       -2.8523899928       -0.8907579152
 C          2.5001299793       -2.7059370444       -1.7308357355
 C          2.9655618094       -1.4497990550       -2.0767108878
 C          2.3149793495       -0.3334745341       -1.5728000096
 N          2.8157875996        0.9572530953       -1.8849979619
 S          4.1390417797        1.3792758268       -0.9419511828
 O          4.3723072998        2.7851441064       -1.1817333753
 O          5.2233113396        0.4851112262       -1.2545224614
 C          3.5759294299        1.1141614498        0.7289194577
 C          3.6778564598       -0.1488796593        1.2766392299
 C          3.1126669099       -0.3854752670        2.5194234304
 C          2.4543706501        0.6355439642        3.1868326287
 C          2.3665357701        1.9000633932        2.6256554965
 C          2.9242758300        2.1420698310        1.3809092560
 H          2.8711277601        3.1095585702        0.9063886643
 H          1.8496730803        2.6892494442        3.1479235052
 H          1.9944644902        0.4445472059        4.1432264591
 H          3.1760740999       -1.3683955163        2.9578607621
 H          4.1926850497       -0.9184841203        0.7246141712
 H          2.1145425597        1.6792416755       -1.7884791131
 H          3.8246859693       -1.3146193262       -2.7130002881
 H          2.9958759192       -3.5821170851       -2.1198565241
 H          1.0651103793       -3.8398572523       -0.6296103634
 C         -0.3923553404       -1.8499189301        0.5998599433
 H          0.0260716297       -1.7437350484        1.6124069231
 C         -1.1205168205       -3.1767238602        0.5096740157
 C         -0.6835144005       -4.3441510788        1.3413238477
 C         -1.9534242504       -3.6217660481        1.6730998465
 H         -2.8956633505       -4.1112001383        1.4770884575
 H         -1.9669804703       -2.9827308066        2.5443509354
 H         -0.7562250906       -5.3347165295        0.9179207794
 H          0.1611368596       -4.2043564777        1.9987891073
 H         -1.5060121706       -3.3706221119       -0.4846783539
 O         -1.8571494606       -1.2485460941       -1.8089870876
