  62
        -98.94528352
 C         -2.2533854114       -0.6534533228       -0.1722840352
 C         -1.3681810132       -0.9715572496        0.8809591676
 C         -0.5903156482       -2.2161046405        0.7404125838
 C         -0.7260506250       -2.9379089353       -0.3871010356
 C          0.0285085807       -4.1868036530       -0.7501884199
 C          1.4606263709       -3.8907229971       -1.2418735180
 C          2.1632063833       -2.7172807904       -0.5577430201
 H          3.0647654368       -2.4887488732       -1.1343507547
 H          1.5267822066       -1.8324201364       -0.6247939408
 C          2.5844576223       -2.9549870297        0.8913494273
 H          2.9850285248       -2.0138900682        1.2767795168
 H          3.3910044742       -3.6925255630        0.9041719143
 C          1.4876439212       -3.4475587820        1.8326992136
 H          1.9190884391       -3.4988515448        2.8367224837
 H          1.1978443860       -4.4605700780        1.5661243761
 C          0.2602137028       -2.5455095729        1.9424381920
 H         -0.4161096471       -2.9806881582        2.6892290721
 H          0.5694095696       -1.5770917944        2.3468846932
 H          1.4034046329       -3.6495834180       -2.3059554655
 H          2.0624518614       -4.7944193678       -1.1314649390
 H         -0.5230496499       -4.6714007078       -1.5585721625
 H          0.0345366354       -4.8635835784        0.1003372005
 O         -1.5673882598       -2.5773399512       -1.3960149914
 C         -2.3464232840       -1.4391122480       -1.3191941793
 O         -3.0743475218       -1.2372806727       -2.3142179424
 O         -1.2210134365       -0.2403616263        1.8973345666
 C         -3.0658061019        0.6285533693       -0.1074583408
 C         -2.1234852922        1.7999220830        0.0388832537
 C         -2.3038279034        2.8340717503        0.9481866300
 C         -1.3654105435        3.8474453092        1.0469720316
 C         -0.2257134101        3.8413609775        0.2633382224
 C         -0.0433191974        2.8178269877       -0.6606072206
 C         -1.0061688323        1.8294601903       -0.7859743203
 H         -0.8616477216        1.0420751849       -1.5109324839
 N          1.0988458102        2.7721834559       -1.4818845049
 S          2.0230606421        1.3828099661       -1.5934136363
 O          3.0865081180        1.7260521047       -2.5127709083
 O          1.1962155793        0.2635725691       -1.9635455789
 C          2.7250688364        1.1344721204        0.0294613254
 C          1.8947815197        0.8418415283        1.0929359679
 C          2.4537676564        0.6864427465        2.3524852979
 C          3.8228536575        0.8148477423        2.5272524231
 C          4.6434954187        1.1041331312        1.4475256119
 C          4.0907610371        1.2720440898        0.1882986068
 H          4.6871757800        1.5025494489       -0.6794603097
 H          5.7086188204        1.2012960802        1.5826924118
 H          4.2498020570        0.6866951531        3.5093845575
 H          1.8057257473        0.4651525859        3.1860455989
 H          0.8324698488        0.7322210173        0.9406811289
 H          1.7036389680        3.5767336916       -1.3938589631
 H          0.5169238519        4.6184939767        0.3621748653
 H         -1.5147859746        4.6441453062        1.7596685192
 H         -3.1725116984        2.8419591867        1.5858334474
 H         -3.5774001746        0.7151089709       -1.0775101229
 C         -4.1040871697        0.5454826770        0.9916992630
 C         -5.3905271087        1.3048052155        0.8748673064
 C         -5.3836104306       -0.1859702926        0.7235478368
 H         -5.8086380264       -0.7887740440        1.5119336696
 H         -5.5163821106       -0.6036835235       -0.2642403803
 H         -5.8255173040        1.7242387905        1.7694695827
 H         -5.5405359932        1.9018817152       -0.0119913505
 H         -3.6603527868        0.4335919217        1.9741634137
