  62
        -98.92889582
 C         -2.4669911320       -0.9015830564        0.8007145137
 C         -2.8450625428       -0.3852722145       -0.4628275861
 C         -3.6610291020        0.8450738054       -0.4462767171
 C         -3.9666438212        1.4265160418        0.7251716200
 C         -4.8191820524        2.6444016403        0.9805661246
 C         -4.6386194715        3.8475232622        0.0452537097
 C         -3.2095278319        4.0541743476       -0.4773704602
 H         -2.5138754215        3.4185374059        0.0732362125
 H         -2.9139402525        5.0901126224       -0.3013504066
 C         -3.0754065501        3.7761215361       -1.9765568016
 H         -2.1783650287        4.2770986824       -2.3482670815
 H         -3.9322383900        4.2153550847       -2.4921969874
 C         -2.9622249810        2.3017949811       -2.3629014814
 H         -1.9945986608        1.9052791716       -2.0423664322
 H         -2.9861988936        2.2366759281       -3.4533631438
 C         -4.0546950191        1.3829072754       -1.7919994243
 H         -4.1397489210        0.5149905179       -2.4516101678
 H         -5.0169688636        1.8881234597       -1.7576259567
 H         -4.9532089716        4.7303081803        0.6045035931
 H         -5.3166259587        3.7560119232       -0.8020842188
 H         -5.8677966860        2.3329941063        0.9639514248
 H         -4.5888952951        2.9410116852        2.0067728998
 O         -3.5304567670        0.9259952573        1.9166841542
 C         -2.7720822590       -0.2289506797        1.9854335970
 O         -2.4265346979       -0.5439958193        3.1425327905
 H          0.3990056034       -0.4919601536        1.0111386337
 C          0.5055842171       -1.1830486747        0.1828481885
 C         -0.4792889682       -2.1423217069       -0.0212026457
 C         -0.3357429732       -3.0254639190       -1.0820953299
 C          0.7605923891       -2.9355777086       -1.9220295324
 C          1.7332868058       -1.9739118577       -1.7223898803
 C          1.6030263388       -1.0884902883       -0.6599906380
 N          2.5831912624       -0.0972130825       -0.4544927044
 S          4.1949731532       -0.5950964280       -0.5721905501
 O          4.5693849565       -0.6015019175       -1.9641048551
 O          4.3816050430       -1.8413665713        0.1366768230
 C          5.0367638846        0.7308848142        0.2690993120
 C          5.2838492207        1.9039839927       -0.4186373875
 C          5.9269375808        2.9413441201        0.2375809081
 C          6.3096821991        2.7895585760        1.5622065227
 C          6.0548773045        1.6062067621        2.2388644679
 C          5.4106229938        0.5650707847        1.5890962533
 H          5.2004508016       -0.3755843143        2.0726889176
 H          6.3559900571        1.4899252378        3.2675329785
 H          6.8127220535        3.5973497048        2.0698979334
 H          6.1292411090        3.8622019513       -0.2852176632
 H          4.9780240250        1.9725102285       -1.4495141736
 H          2.4279416001        0.4158822942        0.4027124992
 H          2.5926798760       -1.8986031302       -2.3691425705
 H          0.8578833811       -3.6232456361       -2.7488293554
 H         -1.0943356641       -3.7680795416       -1.2665950079
 C         -1.6439074697       -2.1711778894        0.9381967402
 H         -1.2327822124       -2.1303718755        1.9607396969
 C         -2.4571264641       -3.4543326480        0.8559264408
 C         -3.8663740277       -3.5016963148        1.3647196046
 C         -3.5941124868       -3.6358851308       -0.1019583693
 H         -3.7255507925       -4.6058953727       -0.5591147466
 H         -3.8399243845       -2.8113341749       -0.7515526145
 H         -4.2979706239       -2.5785672678        1.7241080847
 H         -4.1850392327       -4.3750153789        1.9136810615
 H         -1.8450763687       -4.3287817555        1.0561909342
 O         -2.5409674321       -0.9177587678       -1.5597173947
