  62
        -98.94279564
 C         -1.1682257872       -1.6848000126        0.1987009018
 C         -1.6042706516       -0.8108549643        1.2196817755
 C         -2.8303759434       -0.0401776183        0.9516700648
 C         -3.4395041496       -0.1823647186       -0.2380764173
 C         -4.6491807601        0.5535344897       -0.7444040585
 C         -4.2284032986        1.8082823462       -1.5289207610
 C         -4.0618034728        3.0699962463       -0.6841223871
 H         -3.6605645634        3.8472483901       -1.3387647847
 H         -5.0430037494        3.4032833502       -0.3377620146
 C         -3.1345230851        2.9296846501        0.5256847748
 H         -2.2309179558        2.3883950037        0.2354051903
 H         -2.8165738793        3.9332843790        0.8172738806
 C         -3.8101420909        2.2539129249        1.7283811503
 H         -3.6571014533        2.8684981733        2.6182993555
 H         -4.8862940607        2.2199092079        1.5579414809
 C         -3.2963702759        0.8494129830        2.0719039254
 H         -2.4294660955        0.9355754575        2.7349594960
 H         -4.0696534981        0.3176648535        2.6374884735
 H         -3.2868842597        1.5880967434       -2.0397615860
 H         -4.9783384993        2.0112825894       -2.2965841125
 H         -5.1639909152       -0.1273008784       -1.4256265394
 H         -5.3196666145        0.8062717347        0.0716317219
 O         -2.9737274372       -1.0198382831       -1.2057881913
 C         -1.8268658234       -1.7739975380       -1.0269080174
 O         -1.5091176230       -2.4697839495       -2.0104322261
 O         -0.9852201827       -0.6700776779        2.3105332513
 C          0.1139934686       -2.4692656306        0.3993915073
 C          1.1777202216       -1.9998044564       -0.5648714320
 C          2.1426838210       -2.8394790147       -1.1079955425
 C          3.1063279997       -2.3338040363       -1.9638507681
 C          3.1460385641       -0.9875316763       -2.2801433921
 C          2.1873059785       -0.1390649334       -1.7386365606
 C          1.2184098333       -0.6525861012       -0.8928977641
 H          0.4638994790        0.0118351419       -0.5034659521
 N          2.1735027345        1.2330432404       -2.0282106529
 S          1.6856254038        2.3206320068       -0.8546290110
 O          0.2567409397        2.2673160305       -0.6771185607
 O          2.2169386075        3.5891228153       -1.3071608452
 C          2.5468275469        1.8027992161        0.6194169108
 C          3.9181031495        1.9771818230        0.6358039095
 C          4.6403183848        1.5399187336        1.7330114688
 C          3.9828811070        0.9307613028        2.7917367280
 C          2.6071952115        0.7688274494        2.7634216187
 C          1.8779917041        1.2083537412        1.6688899730
 H          0.8071735742        1.0832982654        1.6292164126
 H          2.0854765736        0.2951519726        3.5798814849
 H          4.5441507265        0.5821551425        3.6442840086
 H          5.7101165987        1.6704112258        1.7587559484
 H          4.3903021689        2.4647422889       -0.2016578027
 H          2.9629956328        1.5703925631       -2.5580882043
 H          3.9001289796       -0.5973242964       -2.9461197233
 H          3.8439119397       -2.9985181816       -2.3870893766
 H          2.1346583671       -3.8902012406       -0.8684797294
 H          0.4535633444       -2.2166208767        1.4160885733
 C         -0.1427115948       -3.9602764626        0.3296150436
 C          0.6639335917       -4.9088562040        1.1640415857
 C         -0.7691122230       -4.6408249096        1.5088683163
 H         -1.5004368805       -5.4144244754        1.3294146584
 H         -0.9828745301       -4.0318932388        2.3752943966
 H          0.9165614224       -5.8728505136        0.7487410367
 H          1.4237413751       -4.4897626343        1.8062098105
 H         -0.4551680791       -4.2812354492       -0.6575144232
