  62
        -98.93735005
 C          1.9556414794        0.8879820997        0.5352686706
 C          2.2489492923        0.2207949051       -0.6748934063
 C          2.6608474734       -1.1927776868       -0.5699604405
 C          2.6880077560       -1.7711252411        0.6450750034
 C          3.1141255331       -3.1727743576        0.9898805058
 C          4.6441355340       -3.3436120064        0.9803208234
 C          5.3681517938       -2.6359834830       -0.1631135622
 H          5.1070906009       -1.5760728519       -0.1499335896
 H          6.4419182251       -2.7077083942        0.0291227481
 C          5.1048249429       -3.2069806018       -1.5543211794
 H          5.4531241297       -4.2419015248       -1.5866197551
 H          5.7056669615       -2.6310007700       -2.2625712507
 C          3.6503307390       -3.1760713885       -2.0247073087
 H          3.0642987047       -3.9385717374       -1.5189073668
 H          3.6463576277       -3.4346355636       -3.0877615508
 C          2.9645567802       -1.8172717980       -1.9106383609
 H          3.5543792989       -1.0721364340       -2.4563428915
 H          2.0031133733       -1.8678450534       -2.4369723711
 H          5.0310801058       -2.9365074976        1.9175092615
 H          4.8729755438       -4.4101082152        0.9554505469
 H          2.7463597338       -3.3741942906        1.9984376646
 H          2.6346226172       -3.8786439558        0.3179562198
 O          2.3621570413       -1.0957446630        1.7851627290
 C          1.9861709906        0.2322504165        1.7635602169
 O          1.7131564965        0.7134743492        2.8844487970
 O          2.1843641798        0.7792980201       -1.8023909242
 C          1.5286808430        2.3426401891        0.5140988290
 C          0.2863856838        2.5194170049       -0.3265600583
 C          0.0770869128        3.6237053540       -1.1431540443
 C         -1.0972825609        3.7471466136       -1.8653326170
 C         -2.0852382762        2.7840913722       -1.7841766990
 C         -1.8835033757        1.6719718762       -0.9728242268
 C         -0.7088666142        1.5536172479       -0.2489410960
 H         -0.5664366664        0.6901362798        0.3861321125
 N         -2.8497572813        0.6549177786       -0.9028029643
 S         -2.9553573128       -0.2987655979        0.4816659335
 O         -2.9616567362        0.5338783358        1.6643288737
 O         -1.9446198118       -1.3260497438        0.4206167390
 C         -4.5678031322       -1.0210341283        0.2383320493
 C         -5.6684282729       -0.4231236386        0.8231521066
 C         -6.9238462479       -0.9678873291        0.6035964455
 C         -7.0574177256       -2.0936290279       -0.1952253901
 C         -5.9437017204       -2.6836778043       -0.7742592524
 C         -4.6853829985       -2.1444606307       -0.5579355196
 H         -3.7901515883       -2.5723252562       -0.9784417090
 H         -6.0504899570       -3.5607082805       -1.3919767581
 H         -8.0352163494       -2.5157285175       -0.3650848314
 H         -7.7905991545       -0.5133731416        1.0555701303
 H         -5.5141146847        0.4443540172        1.4445204725
 H         -3.7580470022        0.9426023196       -1.2398760469
 H         -3.0001526162        2.8825854529       -2.3479773875
 H         -1.2467602292        4.6095403404       -2.4970864773
 H          0.8344673803        4.3869913923       -1.2148854159
 H          1.2667939694        2.5954010100        1.5535102765
 C          2.6827008685        3.2206985178        0.0730871173
 C          2.8344880813        4.6076912600        0.6193063274
 C          3.7725332606        3.5239111210        1.0555055602
 H          4.7929392098        3.5483500097        0.7038379024
 H          3.6634908004        3.1202084269        2.0521045081
 H          3.2156682892        5.3797113400       -0.0319977356
 H          2.0950905555        4.9498677490        1.3277551002
 H          2.9713474631        3.0370097913       -0.9554302866
