  62
        -98.94667348
 C          1.1800788274        1.2707469225        0.0823816607
 C          1.5723812835        0.2845261935        1.0209196811
 C          2.4202948919       -0.7968258299        0.5065125076
 C          2.7133780798       -0.8308131167       -0.8062536963
 C          3.6356629929       -1.8226706398       -1.4532039599
 C          5.0792207226       -1.2996493963       -1.4723968792
 C          5.5674671217       -0.7848125208       -0.1181530055
 H          6.6075338475       -0.4760681499       -0.2437028364
 H          4.9985302308        0.1080400941        0.1510379839
 C          5.4724854883       -1.8080749642        1.0224420619
 H          5.3721462724       -2.8133570074        0.6117934282
 H          6.4033229022       -1.7836547084        1.5930513683
 C          4.3360291400       -1.5487215995        2.0134974892
 H          4.4904138924       -2.1926198963        2.8834508480
 H          4.3837034257       -0.5136451778        2.3612572493
 C          2.9193552992       -1.8175263693        1.4895015950
 H          2.2352202119       -1.7728990996        2.3416725794
 H          2.8705815905       -2.8207611888        1.0624772716
 H          5.7330524803       -2.1039346062       -1.8146370563
 H          5.1425193969       -0.4809958183       -2.1929345855
 H          3.5933540885       -2.7650329051       -0.9103927068
 H          3.3066410943       -1.9845774741       -2.4810444186
 O          2.2315633389        0.0731624916       -1.6939719142
 C          1.4553580760        1.1463591551       -1.2799217266
 O          1.0860324574        1.8903145934       -2.2066530839
 O          1.2353847707        0.3149923043        2.2358229788
 C          0.3658045572        2.4526853044        0.5856193877
 C         -1.0707092593        2.2429475591        0.1787930329
 C         -1.6848969817        2.9218343648       -0.8648187008
 C         -2.9903525219        2.6247369661       -1.2202247351
 C         -3.7090442363        1.6557460900       -0.5431935315
 C         -3.1013341888        0.9730488305        0.5027757808
 C         -1.7944584325        1.2673006880        0.8553529437
 H         -1.3158837226        0.7259419713        1.6615906526
 N         -3.8236152111       -0.0334261646        1.1874740094
 S         -4.0957754339       -1.4307752341        0.3067029627
 O         -4.8974787866       -1.1027119911       -0.8434437342
 O         -4.6629666748       -2.3795200920        1.2369139253
 C         -2.4781541490       -1.9784178688       -0.2097499699
 C         -1.8863419310       -1.3806417375       -1.3046808053
 C         -0.6141646005       -1.7819336909       -1.6783794015
 C          0.0398324771       -2.7670801773       -0.9549834178
 C         -0.5630343998       -3.3486644534        0.1493116472
 C         -1.8325903898       -2.9478371392        0.5312165361
 H         -2.3414161494       -3.3784354803        1.3788495717
 H         -0.0474886337       -4.1101419776        0.7119778387
 H          1.0251536496       -3.0823908926       -1.2580283032
 H         -0.1356712706       -1.3169235212       -2.5264190508
 H         -2.4243341633       -0.6229691033       -1.8513797232
 H         -3.3973961367       -0.2866513450        2.0689023781
 H         -4.7192689116        1.4019656769       -0.8201253681
 H         -3.4545553480        3.1562746509       -2.0371373186
 H         -1.1351622035        3.6696913076       -1.4117908109
 H          0.4133432439        2.3890181538        1.6817803358
 C          0.9447342117        3.7812903174        0.1516783135
 C          0.5128152202        5.0315487899        0.8560881328
 C          1.8966980400        4.4953421803        1.0620227001
 H          2.7274938636        5.0274119421        0.6233683271
 H          2.1286962015        4.0307027400        2.0094000676
 H          0.3920588192        5.9346506674        0.2778169428
 H         -0.1966519150        4.9285540590        1.6633108703
 H          1.1408582478        3.8388492868       -0.9115739718
