  62
        -98.94571091
 C          2.4849001805        1.1452030178       -0.0366203640
 C          3.1088173673        0.2695498161        0.8835150732
 C          3.6347526701       -0.9802083828        0.3252297538
 C          3.5018220051       -1.2309058907       -0.9901606997
 C          3.9898337649       -2.4587878256       -1.7098251530
 C          3.0164514620       -3.6437504572       -1.6405920969
 C          2.9325185657       -4.3371941674       -0.2801657854
 H          2.3872787635       -5.2711030367       -0.4298775584
 H          3.9365265875       -4.5951007526        0.0585241806
 C          2.2160564425       -3.5192860470        0.8038265374
 H          1.6295590481       -2.7253789395        0.3326340968
 H          1.5060680757       -4.1588905992        1.3341627076
 C          3.1459592746       -2.9042474363        1.8506601910
 H          2.5383445008       -2.3204902812        2.5473711700
 H          3.6342238623       -3.7002596537        2.4170088365
 C          4.2262099931       -1.9798368948        1.2729944926
 H          4.9972037485       -2.5673512369        0.7758181722
 H          4.6815085265       -1.4278344016        2.0988352657
 H          2.0216654905       -3.2976653544       -1.9333862353
 H          3.3435199833       -4.3789637499       -2.3794299992
 H          4.9596612049       -2.7582697274       -1.3118792123
 H          4.1136425868       -2.1766228849       -2.7574402217
 O          2.8996599091       -0.3617729880       -1.8436602712
 C          2.3432152754        0.8253723442       -1.3874946669
 O          1.7759149224        1.4954049067       -2.2701273420
 O          3.2127146411        0.5168334745        2.1161686133
 C          1.8552585285        2.4257032100        0.4863143555
 C          0.3575320510        2.3055227661        0.3448318615
 C         -0.4330650215        3.1990471887       -0.3637076720
 C         -1.7939414509        2.9771565108       -0.4943487471
 C         -2.3931481627        1.8696285044        0.0768613071
 C         -1.6116395209        0.9742500647        0.7960255609
 C         -0.2531476047        1.2018227461        0.9300532141
 H          0.3557115067        0.4974266681        1.4848532383
 N         -2.2144599227       -0.1673123836        1.3724853017
 S         -2.7909138105       -1.2947221217        0.2594212545
 O         -2.8225630050       -2.5540512427        0.9717566878
 O         -2.0211796443       -1.2685318811       -0.9644740117
 C         -4.4583598809       -0.7539968453       -0.0464798983
 C         -5.3456279389       -0.7558093363        1.0123226111
 C         -6.6456153179       -0.3279306154        0.7957448782
 C         -7.0340082042        0.0898386056       -0.4687254945
 C         -6.1318763632        0.0821073377       -1.5217165679
 C         -4.8291355321       -0.3433852207       -1.3116398904
 H         -4.0900374881       -0.3600662826       -2.0968606019
 H         -6.4353340869        0.4072768105       -2.5038847348
 H         -8.0460399255        0.4235770027       -0.6350216985
 H         -7.3501977969       -0.3207681389        1.6116219828
 H         -5.0021577871       -1.0936353165        1.9757053103
 H         -1.6037931275       -0.6391677591        2.0259789141
 H         -3.4510514543        1.6920850121       -0.0283480842
 H         -2.3955995617        3.6760857835       -1.0549482137
 H          0.0179591558        4.0606065546       -0.8274395707
 H          2.0960363037        2.4503569833        1.5594237122
 C          2.4450316001        3.6508047663       -0.1755116843
 C          2.3777561510        4.9774227869        0.5187527497
 C          3.6872686500        4.2591152921        0.4005577232
 H          4.4320004303        4.6478725348       -0.2774637307
 H          4.1018280890        3.7989290025        1.2856749959
 H          2.2249716876        5.8641140262       -0.0773314915
 H          1.9030457790        5.0093664507        1.4876563632
 H          2.3533530098        3.6295888031       -1.2550750653
