  62
        -98.94438031
 C          1.9888794524        1.3606952951        0.0439784417
 C          2.2838280179        0.4000625434       -0.9535034446
 C          3.6547725970       -0.1337522510       -0.9484604511
 C          4.5383177497        0.3050822764       -0.0346873975
 C          5.9437095060       -0.1982938515        0.1166683578
 C          6.0112640827       -1.3673610553        1.1092983505
 C          4.9753525422       -2.4608851109        0.8478931165
 H          5.1385348473       -3.2470555412        1.5883267558
 H          3.9759702828       -2.0565584619        1.0259671004
 C          5.0331322809       -3.0665864293       -0.5615177147
 H          4.9579716552       -4.1529534851       -0.4787301517
 H          5.9963160635       -2.8430711355       -1.0216903956
 C          3.9086065952       -2.6128032995       -1.4942512354
 H          2.9444132701       -2.7500620959       -0.9975195832
 H          3.9169961011       -3.2599347094       -2.3755659242
 C          3.9962553062       -1.1633742017       -1.9890214901
 H          4.9878469363       -0.9765087917       -2.4057959777
 H          3.2592595634       -1.0403545335       -2.7879100858
 H          5.8487040189       -0.9766818507        2.1164884863
 H          7.0139560220       -1.7967907787        1.0692955301
 H          6.5630398628        0.6191504906        0.4897269473
 H          6.3197001971       -0.5111731046       -0.8554385365
 O          4.2269895846        1.2389385261        0.8985053811
 C          2.9551883332        1.7776030160        0.9670852758
 O          2.8074106167        2.6176919869        1.8767382260
 O          1.4636938128       -0.0102866175       -1.8192690257
 C          0.6246127572        2.0166698041        0.1995483145
 C         -0.3523198957        1.0948080324        0.8895720808
 C         -0.8692690383        1.4104049159        2.1404123718
 C         -1.7820834074        0.5733263932        2.7590145862
 C         -2.1986807115       -0.5926125651        2.1423890221
 C         -1.6832779881       -0.9179754228        0.8943411175
 C         -0.7736559346       -0.0752262036        0.2735694833
 H         -0.3701442084       -0.3382200202       -0.6929143857
 N         -2.1140956130       -2.0960145104        0.2505335980
 S         -3.7706313915       -2.2272298689        0.0265830337
 O         -4.3847346693       -2.6628252033        1.2560089988
 O         -3.9435798115       -3.1014479124       -1.1117379747
 C         -4.2951063320       -0.5668154751       -0.3605899408
 C         -5.0070312171        0.1653300573        0.5672124047
 C         -5.3357763669        1.4789985078        0.2733391092
 C         -4.9450537270        2.0355078926       -0.9343690667
 C         -4.2331981147        1.2851248285       -1.8576435402
 C         -3.8999120964       -0.0277006979       -1.5687890653
 H         -3.3489446762       -0.6400850611       -2.2648209532
 H         -3.9326434006        1.7177972961       -2.7985179589
 H         -5.1967251316        3.0600210855       -1.1588944644
 H         -5.8906086908        2.0646932026        0.9883196596
 H         -5.2906788509       -0.3059822868        1.4937936648
 H         -1.6287131004       -2.2650816219       -0.6193909985
 H         -2.9112134957       -1.2562912152        2.6052088484
 H         -2.1734972911        0.8315373868        3.7310985661
 H         -0.5409378107        2.3143521669        2.6325587637
 H          0.7889937332        2.8804735513        0.8568514246
 C          0.0506680810        2.5166211155       -1.1131694710
 C         -1.0335782204        3.5494359827       -1.0806093018
 C          0.3398402747        3.9182646476       -1.5541609521
 H          0.4931822786        4.1052516074       -2.6064645396
 H          0.9567794319        4.5280340616       -0.9099141011
 H         -1.8282560255        3.4836279058       -1.8070649208
 H         -1.3502043603        3.9102678851       -0.1139395822
 H          0.0010814870        1.7556687280       -1.8801314660
