  62
        -98.93967009
 C         -1.0307985274       -1.3888979664        0.4635182897
 C         -1.9750727306       -1.1218714914       -0.5530146614
 C         -3.0621050605       -0.1829718323       -0.2135249156
 C         -3.0950426662        0.3658426092        1.0140159662
 C         -4.0751571761        1.3609966125        1.5832956560
 C         -5.5614298797        1.1442446140        1.2616924890
 C         -6.1293889364        2.1721025678        0.2812307861
 H         -7.2086787869        2.2416884538        0.4341950045
 H         -5.7028300540        3.1492305429        0.5178609670
 C         -5.8915880699        1.8634649773       -1.1958341370
 H         -6.5201935527        1.0221317919       -1.4954084428
 H         -6.2157319960        2.7334912511       -1.7716623813
 C         -4.4440378612        1.5398431117       -1.5706860829
 H         -4.3228608438        1.7340516697       -2.6387013580
 H         -3.7542424021        2.2040708636       -1.0494593200
 C         -4.0557182262        0.0759252843       -1.3126305896
 H         -4.9530880014       -0.5220519105       -1.1304876159
 H         -3.5884067141       -0.3432959125       -2.2092697654
 H         -6.1173587793        1.2306620845        2.1967134710
 H         -5.7163239384        0.1342590898        0.8861482954
 H         -3.9206755617        1.3211947433        2.6643201400
 H         -3.7659870246        2.3606362076        1.2651937236
 O         -2.1489396791        0.0928263968        1.9581942730
 C         -1.0890910172       -0.7564117307        1.7032925848
 O         -0.2776609598       -0.8685691378        2.6459279690
 H          0.6677374786        0.2776611762       -0.2252663287
 C          1.1971871110       -0.3433298974       -0.9307780820
 C          1.0198802762       -1.7191546007       -0.8999178280
 C          1.6866125414       -2.4922475076       -1.8424408584
 C          2.4963830363       -1.8915418978       -2.7911639726
 C          2.6789959467       -0.5203766573       -2.8091502375
 C          2.0190847911        0.2608328844       -1.8675123732
 N          2.1672620964        1.6555766376       -1.8396308019
 S          2.1741266745        2.4581331307       -0.3729742672
 O          0.8417918749        2.5288433951        0.1742244380
 O          2.7984558258        3.7299844064       -0.6711347176
 C          3.2550681856        1.4906887799        0.6655650215
 C          2.7562558497        0.7091734793        1.6869720684
 C          3.6370578344       -0.0671644335        2.4250905457
 C          4.9914900997       -0.0491501071        2.1337385545
 C          5.4790137204        0.7495052446        1.1097709042
 C          4.6044515728        1.5236814388        0.3665244394
 H          4.9445382313        2.1666467787       -0.4289561748
 H          6.5338675880        0.7677413375        0.8884493369
 H          5.6694993901       -0.6583923189        2.7102942863
 H          3.2465907189       -0.6835275126        3.2193895441
 H          1.6985710296        0.7033057892        1.9010663914
 H          2.8517381345        2.0288230690       -2.4803746335
 H          3.3147772157       -0.0567255854       -3.5474077286
 H          3.0006411895       -2.5022310150       -3.5244441141
 H          1.5659298673       -3.5631277351       -1.8389212215
 C          0.1485337811       -2.3020763994        0.1882400845
 H          0.7428845764       -2.3135236219        1.1149041436
 C         -0.3196644157       -3.7123313220       -0.1063509652
 C          0.5188758969       -4.8877694312        0.2945435012
 C         -0.7469834117       -4.5831491326        1.0357991091
 H         -1.5983059842       -5.2328029004        0.8990279639
 H         -0.6723542844       -4.1666157504        2.0301484555
 H          0.5353405556       -5.7530369204       -0.3508896772
 H          1.4553731911       -4.6887681087        0.7933008931
 H         -0.8903548571       -3.7762686533       -1.0252694050
 O         -1.9143479163       -1.6357897520       -1.7013207975
