  62
        -98.94853230
 C         -1.2492730598       -1.5870801802        0.1719562387
 C         -1.6853206499       -0.6955329207        1.1806433991
 C         -2.9232373498        0.0379506996        0.8987697192
 C         -3.5502882595       -0.1419237897       -0.2779774310
 C         -4.8389175094        0.5082068106       -0.7030206310
 C         -4.6651235491        1.9165628709       -1.2868067302
 C         -4.3400612292        3.0075388904       -0.2659571996
 H         -5.0603695194        2.9659920100        0.5520914103
 H         -4.4730384190        3.9669733806       -0.7699388991
 C         -2.9140100494        2.9456638199        0.2980709007
 H         -2.4783743993        3.9479524899        0.3024224514
 H         -2.2778814593        2.3420743302       -0.3542494094
 C         -2.8134192497        2.4074470391        1.7251609005
 H         -3.3051394198        3.0995240688        2.4132474907
 H         -1.7535347698        2.3652904789        1.9898829007
 C         -3.4168724399        1.0113551591        1.9264439596
 H         -4.5051810399        1.0683183692        1.9027643094
 H         -3.1063291002        0.6439126086        2.9079763495
 H         -5.6010590490        2.1813345513       -1.7846322003
 H         -3.8799874389        1.8868954112       -2.0462539100
 H         -5.5269155596        0.5461410403        0.1422507989
 H         -5.2698210893       -0.1337907389       -1.4744588214
 O         -3.0805309294       -0.9821922893       -1.2379178914
 C         -1.9122819695       -1.7076549295       -1.0488837315
 O         -1.5842663194       -2.4131684990       -2.0221103218
 O         -1.0707129902       -0.5265349113        2.2687998893
 C          0.0229385501       -2.3822070404        0.3930863386
 C          1.0923340103       -1.9707578300       -0.5898461309
 C          2.0110134104       -2.8581918298       -1.1370751712
 C          2.9903779506       -2.4038198895       -2.0035861307
 C          3.0959061008       -1.0614784493       -2.3206072200
 C          2.1844399808       -0.1653351895       -1.7743904097
 C          1.1924168205       -0.6283546799       -0.9259117802
 H          0.4714782005        0.0724838100       -0.5354644100
 N          2.2485820010        1.2076261606       -2.0550517090
 S          1.8516952108        2.3013778200       -0.8521930685
 O          0.4230337808        2.3613804601       -0.6790106788
 O          2.4875521311        3.5335774102       -1.2695867577
 C          2.6603027604        1.6737271792        0.6093880013
 C          1.9366867601        1.1247830787        1.6473224709
 C          2.6190220298        0.5946357281        2.7317170007
 C          4.0038976198        0.6229000179        2.7616902011
 C          4.7176414101        1.1880745084        1.7151877015
 C          4.0418457904        1.7155949590        0.6280548817
 H          4.5599534507        2.1720003194       -0.1997693080
 H          5.7949969001        1.2143124082        1.7424792818
 H          4.5284145296        0.2040181374        3.6059527410
 H          2.0531932196        0.1563171177        3.5385262004
 H          0.8588070402        1.1022576488        1.6052932506
 H          3.0550608511        1.5006374808       -2.5860693187
 H          3.8657879810       -0.7095736591       -2.9898494197
 H          3.6903583406       -3.1053362593       -2.4312125010
 H          1.9550126302       -3.9060683600       -0.8919805818
 H          0.3716607499       -2.0969959310        1.3981630188
 C         -0.2637738401       -3.8695174604        0.3832873678
 C          0.5364829096       -4.8016709209        1.2419988974
 C         -0.8860045304       -4.4924732010        1.5960699673
 H         -1.6345250005       -5.2577927808        1.4562394267
 H         -1.0758348405       -3.8471416014        2.4414505576
 H          0.7645018796       -5.7855402208        0.8605038470
 H          1.3138461195       -4.3733614413        1.8564011978
 H         -0.5969625799       -4.2210563299       -0.5865778225
