  62
        -98.93988467
 C         -1.8019487274       -1.4195889149       -0.5378181938
 C         -1.4209673875       -0.1885538376       -1.1180078484
 C         -2.3142649134        0.9672801315       -0.8915710970
 C         -3.4697593844        0.7814683470       -0.2295748994
 C         -4.5243587731        1.7920066698        0.1394052242
 C         -4.1117275800        2.6749861735        1.3246883795
 C         -2.7091344438        3.2671335167        1.2193367259
 H         -2.5180855394        3.8324553783        2.1359249265
 H         -1.9717194014        2.4622178575        1.1846986100
 C         -2.4908588503        4.2080950408        0.0361058693
 H         -3.2388715546        5.0037509138        0.0659402770
 H         -1.5087790453        4.6677306541        0.1747187655
 C         -2.5123099443        3.5586832395       -1.3512390753
 H         -2.0353320949        4.2582645647       -2.0436945014
 H         -3.5283573685        3.4138807948       -1.7099684913
 C         -1.7364381387        2.2492086912       -1.4401751317
 H         -1.5085514766        2.0427216545       -2.4923818593
 H         -0.7649303568        2.3740987310       -0.9453897781
 H         -4.8417977700        3.4809175676        1.4228830298
 H         -4.1530303657        2.0687562333        2.2332531004
 H         -4.7814494309        2.4029128062       -0.7207059004
 H         -5.4129854561        1.2229104349        0.4226260006
 O         -3.8400821928       -0.4458370399        0.2405744313
 C         -3.0133914911       -1.5450329433        0.1469155326
 O         -3.4687267434       -2.5757969794        0.6852909807
 H          0.9820442398       -0.7928371115       -0.0764189579
 C          0.9344227439       -1.5168593730        0.7184373606
 C          0.0281563557       -2.5660848479        0.6381949861
 C         -0.0227975802       -3.4892908080        1.6752658810
 C          0.8025243361       -3.3520895679        2.7774794965
 C          1.6704110816       -2.2806807577        2.8750088747
 C          1.7301135394       -1.3499207939        1.8414396594
 N          2.6000375247       -0.2570080277        1.9266243198
 S          2.2592722773        1.2471136099        1.2629192403
 O          2.8914686126        2.1810978442        2.1745271033
 O          0.8468926514        1.4370725332        1.0443532471
 C          3.1936850346        1.2373144426       -0.2529348408
 C          2.5795271314        1.0887217267       -1.4787123743
 C          3.3680716181        1.0676745724       -2.6204325172
 C          4.7439101854        1.1946648246       -2.5191322559
 C          5.3454192292        1.3457867352       -1.2781849625
 C          4.5652904417        1.3673292575       -0.1348807659
 H          4.9887272999        1.4962369176        0.8473759251
 H          6.4161015825        1.4458977558       -1.2003721357
 H          5.3497176208        1.1766226950       -3.4115220466
 H          2.8949350226        0.9481242773       -3.5821760183
 H          1.5072412286        0.9792870299       -1.5383901135
 H          3.0777220577       -0.1662846207        2.8107984323
 H          2.2941602834       -2.1568003726        3.7475057213
 H          0.7545303458       -4.0748665916        3.5780180425
 H         -0.7318442994       -4.3026550530        1.6246170410
 C         -0.9244948591       -2.6633898763       -0.5314107776
 H         -1.6036134506       -3.5056112222       -0.3396413542
 C         -0.1897342143       -2.9283414656       -1.8291156542
 C          0.2776815867       -4.3215530111       -2.1213857276
 C         -0.8603332317       -3.7334370401       -2.8993537710
 H         -0.6965638837       -3.4563972649       -3.9297333312
 H         -1.8577998469       -4.0979032157       -2.6995511668
 H          1.2269551676       -4.4514370031       -2.6176666529
 H          0.0512899590       -5.0887100319       -1.3962727693
 H          0.4389858960       -2.1081088959       -2.1465050650
 O         -0.3796685636       -0.0231248030       -1.8073438845
