  62
        -98.94298398
 C         -1.4945022547       -1.3488659599       -0.3395102109
 C         -1.5779492970        0.0361871942       -0.6293421216
 C         -2.6627583248        0.7679523533        0.0468281748
 C         -3.4627892236        0.1242752389        0.9139800904
 C         -4.6240934490        0.7417893228        1.6369783345
 C         -5.9250903921        0.5913016901        0.8359489067
 C         -5.8018629971        1.0127068418       -0.6282676270
 H         -5.1228186518        0.3265544631       -1.1393746273
 H         -6.7864209461        0.8918798853       -1.0851193325
 C         -5.3152548081        2.4537770072       -0.8352540011
 H         -5.9357202337        2.9268701001       -1.5993187791
 H         -5.4438391572        3.0240086008        0.0854576635
 C         -3.8637054333        2.5719166234       -1.3037368520
 H         -3.6922480245        3.6035964290       -1.6222012834
 H         -3.7065158550        1.9296256892       -2.1738485843
 C         -2.7957839230        2.2339604939       -0.2557245992
 H         -1.8248799908        2.5477765769       -0.6507211308
 H         -2.9827405273        2.7984222282        0.6605039098
 H         -6.7006810324        1.1845781333        1.3237802810
 H         -6.2295681024       -0.4574408492        0.8661669638
 H         -4.4132891695        1.7944062416        1.8171696859
 H         -4.7374897802        0.2357997731        2.5974406114
 O         -3.3295179456       -1.1969492908        1.1984103144
 C         -2.3512185101       -1.9573186717        0.5813757102
 O         -2.3468736915       -3.1578650044        0.9238806133
 O         -0.8065259552        0.6489008248       -1.4103826076
 C         -0.4441052343       -2.2716958651       -0.9359527671
 C          0.7775710257       -2.3416083963       -0.0523589583
 C          1.4465365616       -3.5443516031        0.1453386828
 C          2.5681730330       -3.5980470425        0.9536016565
 C          3.0374353975       -2.4605289253        1.5844019501
 C          2.3640055992       -1.2549703089        1.4097285237
 C          1.2501814278       -1.2032390534        0.5840225217
 H          0.7293162411       -0.2683590961        0.4647408377
 N          2.7866678256       -0.1098229629        2.0879974651
 S          2.4218865810        1.4571567715        1.6533597721
 O          3.1999144316        2.2495042787        2.5831040023
 O          0.9977958351        1.6730793375        1.6763901411
 C          3.1005571861        1.6690959150        0.0179776984
 C          4.4741774762        1.8042238488       -0.0712471375
 C          5.0571921250        1.9623478360       -1.3165799221
 C          4.2589609534        1.9863044834       -2.4510259259
 C          2.8845020028        1.8530415524       -2.3435715019
 C          2.2923932055        1.6880132005       -1.0993938379
 H          1.2241873746        1.5681397788       -1.0039937972
 H          2.2578182061        1.8727216815       -3.2206294487
 H          4.7096700293        2.1117991780       -3.4228952152
 H          6.1268315967        2.0683552753       -1.3999587562
 H          5.0547682679        1.8032482183        0.8368797891
 H          3.6563564303       -0.1866668179        2.5913508176
 H          3.9049318123       -2.5045247023        2.2246449532
 H          3.0796983287       -4.5371849727        1.0998619577
 H          1.0694984083       -4.4436070969       -0.3190894839
 H         -0.9028330666       -3.2741161391       -0.9331100640
 C         -0.0996786809       -1.9349889133       -2.3807680976
 C          1.2002538315       -1.3183815892       -2.7905933840
 C          0.9146257344       -2.7484744907       -3.1293882326
 H          0.7078655836       -3.0063650929       -4.1570192548
 H          1.4516195707       -3.5076310177       -2.5823063967
 H          1.1763274586       -0.5813683214       -3.5776783158
 H          1.9268845062       -1.1073858614       -2.0210354661
 H         -0.9762508766       -1.6226502653       -2.9387450393
