  62
        -98.94114859
 C         -1.7140854804       -0.1852826492        0.1903469000
 C         -2.8490541204       -0.9804211493       -0.1029317199
 C         -4.0113145404       -0.2611286994       -0.6437499201
 C         -3.9411595203        1.0612399706       -0.8755162904
 C         -5.0322484703        1.9222063705       -1.4516309707
 C         -6.0584734403        2.4054488008       -0.4175702508
 C         -7.0209593204        1.3332207209        0.0947718294
 H         -7.8154962104        1.8491315811        0.6376507192
 H         -7.4829346004        0.8259303307       -0.7528045405
 C         -6.3774008504        0.2984733012        1.0283602697
 H         -7.0184571805        0.1455519314        1.8995534197
 H         -5.4236957304        0.6832154212        1.3968856196
 C         -6.1444892505       -1.0715413290        0.3914553500
 H         -7.1048940005       -1.5264318290        0.1386466901
 H         -5.6519705105       -1.7121909788        1.1273941502
 C         -5.2717075004       -1.0409136894       -0.8698644999
 H         -4.9882806405       -2.0672033794       -1.1156825697
 H         -5.8328750804       -0.6235841496       -1.7056016901
 H         -5.5230519403        2.8471841010        0.4259631291
 H         -6.6472588203        3.1962251207       -0.8882133711
 H         -4.5413336402        2.7966895903       -1.8839890509
 H         -5.5439669503        1.3816156003       -2.2483890606
 O         -2.8193760603        1.7849720106       -0.6199575006
 C         -1.6996426204        1.1903634507       -0.0662019104
 O         -0.7599819803        1.9816709207        0.1508429395
 O         -2.9167604905       -2.2274468092        0.0629040805
 C         -0.4331662705       -0.7356466791        0.7948335402
 C          0.4687936895       -1.3629334294       -0.2412455496
 C          0.0479477295       -2.4279982796       -1.0300739794
 C          0.9129099795       -3.0037513499       -1.9422915392
 C          2.2146674696       -2.5504248200       -2.0659102593
 C          2.6457478396       -1.4890899198       -1.2793004395
 C          1.7654532696       -0.8927342595       -0.3877853797
 H          2.0996124596       -0.0556244994        0.2057756101
 N          3.9563103896       -1.0024794898       -1.3797163996
 S          4.7705551796       -0.4887111595       -0.0104380697
 O          6.1704819896       -0.6130730997       -0.3561916396
 O          4.3395899295       -1.2056376992        1.1664031705
 C          4.3649319996        1.2383643405        0.1273553298
 C          3.8487715196        1.7308670408        1.3089899197
 C          3.5577801796        3.0824894809        1.4026938493
 C          3.7895237797        3.9138702606        0.3182739291
 C          4.3128133797        3.4046777703       -0.8606944107
 C          4.6053089097        2.0543506402       -0.9601704904
 H          5.0161921497        1.6226594900       -1.8575737502
 H          4.4907026798        4.0559611401       -1.7013119209
 H          3.5590125398        4.9648177906        0.3937067189
 H          3.1476892496        3.4795037611        2.3175368892
 H          3.6802761695        1.0490301511        2.1282378499
 H          4.5568594396       -1.5187984500       -2.0057066794
 H          2.8933333196       -3.0137661902       -2.7660813091
 H          0.5748600795       -3.8265946500       -2.5541799190
 H         -0.9597260105       -2.7977295795       -0.9199508493
 H          0.0974793095        0.1351271210        1.2037526400
 C         -0.6697477106       -1.7212835788        1.9251838504
 C          0.4771818494       -2.0699572586        2.8240677105
 C         -0.6550439706       -1.2349406585        3.3412694603
 H         -1.3420814206       -1.6784030483        4.0464777704
 H         -0.4782757006       -0.1819557584        3.5071422500
 H          0.5647008094       -3.0878956286        3.1724479008
 H          1.4288372794       -1.5942140187        2.6348136305
 H         -1.3671497906       -2.5080874489        1.6701894306
