  62
        -98.93638410
 C         -1.9788527833       -0.7078259788       -0.4327281773
 C         -3.0230716749       -1.0515272338        0.4584607841
 C         -4.2724233293       -0.2762280324        0.3541042095
 C         -4.3398776419        0.7323967773       -0.5332193686
 C         -5.4912137482        1.6624483166       -0.8211267643
 C         -6.2402200632        2.2287022163        0.3951021168
 C         -7.6503542439        1.6592041352        0.5602368380
 H         -8.1050362356        1.5652663234       -0.4281449686
 H         -8.2510926923        2.3732353727        1.1281147127
 C         -7.7271691332        0.3145495814        1.2813644464
 H         -8.7573666094       -0.0417507381        1.2069632677
 H         -7.5102721666        0.4608988644        2.3416914635
 C         -6.7928494017       -0.7711520888        0.7435043341
 H         -6.7682293274       -0.7487625383       -0.3453243253
 H         -7.2064577044       -1.7396010712        1.0328782221
 C         -5.3649551887       -0.6875829470        1.3030755913
 H         -5.0559009165       -1.6716821643        1.6688125933
 H         -5.3430771978       -0.0254384885        2.1734943676
 H         -6.3268008693        3.3080588924        0.2593977616
 H         -5.6564008747        2.0644116477        1.2994917447
 H         -5.0562945178        2.4787825923       -1.4023771913
 H         -6.1936975994        1.1498068744       -1.4830317749
 O         -3.3005226425        1.0420038653       -1.3594722695
 C         -2.1061450641        0.3413948390       -1.3415661904
 O         -1.2687810680        0.7463605014       -2.1703713464
 H          1.2410657766       -0.0201157387       -1.6579518210
 C          1.2825735201        0.0978113529       -0.5869057755
 C          0.3853453086       -0.5861846019        0.2186881556
 C          0.4469691752       -0.3962310508        1.5967054779
 C          1.3743412393        0.4658792491        2.1510517358
 C          2.2584615716        1.1594974533        1.3431460428
 C          2.2047827482        0.9765455673       -0.0322581388
 N          3.0956428834        1.6801117417       -0.8580678194
 S          4.7022709008        1.7666289758       -0.4084531072
 O          4.8754298518        2.7897801359        0.5930646472
 O          5.4326565492        1.9613107684       -1.6412384941
 C          5.0735598611        0.1685118718        0.2932889178
 C          5.4327110976        0.0636519725        1.6213904127
 C          5.6812572478       -1.1924378606        2.1514885400
 C          5.5635778506       -2.3161102328        1.3487056676
 C          5.2055418446       -2.1940225652        0.0146073711
 C          4.9562655835       -0.9410021617       -0.5205149304
 H          4.6813762305       -0.8106041272       -1.5548201318
 H          5.1168106044       -3.0695265642       -0.6083709956
 H          5.7530512439       -3.2935399724        1.7635146310
 H          5.9615580282       -1.2901713118        3.1879099825
 H          5.5119680220        0.9629941601        2.2100953638
 H          2.9851289537        1.4892450940       -1.8424172204
 H          2.9754109741        1.8512951471        1.7546469389
 H          1.4085949743        0.6036680937        3.2210530405
 H         -0.2541961216       -0.9255263639        2.2266142222
 C         -0.6790160041       -1.4914576665       -0.3496758706
 H         -0.8705056811       -2.2893556897        0.3801467593
 C         -0.3062326136       -2.1225395020       -1.6744986438
 C          0.7341531732       -3.2009650252       -1.7031664249
 C         -0.7048846622       -3.5409660613       -1.9458326382
 H         -1.0123146204       -3.8061620442       -2.9464100580
 H         -1.2451543577       -4.0649346422       -1.1711874000
 H          1.1709922843       -3.4929614827       -0.7603986507
 H          1.4172559281       -3.2374459791       -2.5378828200
 H         -0.3476560472       -1.4318402321       -2.5077898077
 O         -2.9203284103       -1.9777843949        1.3070709297
