  62
        -98.94713057
 C          1.6430449740        1.5256286917       -0.2484561402
 C          2.8400890541        1.2240797631        0.4495605576
 C          3.6200117038        0.0903104605       -0.0620338866
 C          3.1695476467       -0.5876478267       -1.1333089925
 C          3.8360097671       -1.7950290949       -1.7259260775
 C          3.3084070862       -3.0963683875       -1.1046273390
 C          3.2593071678       -3.0777050332        0.4230072972
 H          2.5303256945       -2.3325760794        0.7500264770
 H          2.8935298059       -4.0538585107        0.7487032429
 C          4.6103684857       -2.7956566966        1.0953392361
 H          5.4210682865       -2.9733759184        0.3875969467
 H          4.7432478384       -3.4968505651        1.9218825968
 C          4.7496920261       -1.3890146633        1.6799865478
 H          3.8900615358       -1.1698727406        2.3182814399
 H          5.6403823643       -1.3712151012        2.3137733813
 C          4.8929771032       -0.2541707390        0.6579353244
 H          5.1839981226        0.6489241014        1.2023338321
 H          5.6859510484       -0.4961244912       -0.0526614357
 H          3.9440856220       -3.9181380796       -1.4394762806
 H          2.2988385845       -3.2771772390       -1.4796889251
 H          3.6347296315       -1.8070140954       -2.7986179227
 H          4.9106875679       -1.7181999564       -1.5714893598
 O          2.0221980107       -0.2651742818       -1.7813020750
 C          1.2259472290        0.7908514415       -1.3579875050
 O          0.2052293656        0.9596006641       -2.0516767735
 H         -1.6728726114        2.2931218264       -0.9014583967
 C         -1.6259693866        1.8777879903        0.0923537310
 C         -0.4716979649        2.0176901272        0.8467092879
 C         -0.4327323670        1.4494601005        2.1174601470
 C         -1.5209873427        0.7595134526        2.6178641826
 C         -2.6629261465        0.5992471092        1.8517759558
 C         -2.7050363429        1.1528816347        0.5794194237
 N         -3.8372916518        0.9391289124       -0.2287540163
 S         -4.3824274164       -0.6420906185       -0.3232797055
 O         -4.9654262383       -0.7721860971       -1.6408081088
 O         -5.2780138400       -0.9018742601        0.7780104362
 C         -2.9389436003       -1.6837298588       -0.1674834862
 C         -2.9380592473       -2.6943536443        0.7731780278
 C         -1.8183523274       -3.5012248118        0.8932783621
 C         -0.7192179495       -3.2822662211        0.0772352601
 C         -0.7369610701       -2.2647800577       -0.8634085940
 C         -1.8555209613       -1.4576979779       -0.9925977908
 H         -1.8663329811       -0.6553397938       -1.7133476677
 H          0.1166391688       -2.0751891909       -1.4954351200
 H          0.1569676235       -3.9041596707        0.1749507737
 H         -1.8031410958       -4.2935105118        1.6242559015
 H         -3.8100612338       -2.8229744912        1.3938057740
 H         -3.7475948925        1.3371053918       -1.1528795459
 H         -3.5154759415        0.0479199799        2.2145045882
 H         -1.4778295003        0.3306613311        3.6073281326
 H          0.4717966252        1.5430922299        2.7019748113
 C          0.7738291431        2.6545356739        0.2836584813
 H          1.3428528530        3.0962773427        1.1122002137
 C          0.5115740244        3.7251018004       -0.7533821308
 C         -0.0420999491        5.0473419780       -0.3160083448
 C          1.3789905206        4.9463128561       -0.7801851844
 H          1.6410149282        5.3703198019       -1.7380317510
 H          2.1645870256        5.0183495637       -0.0424502249
 H         -0.7577058488        5.5445574348       -0.9529431705
 H         -0.2223844405        5.1862003014        0.7392367064
 H          0.1889521039        3.3320423164       -1.7096584578
 O          3.2366863920        1.8751449669        1.4520605749
