  62
        -98.93249060
 C         -2.4978321160       -1.1618073495        0.6095312382
 C         -3.3756383266       -0.9337267062       -0.4775661012
 C         -4.4670882065        0.0322408425       -0.2407636876
 C         -4.5605186528        0.6570994087        0.9443828969
 C         -5.6037870186        1.6394001947        1.4164709306
 C         -6.0716276909        2.7137994381        0.4264591871
 C         -4.9884572807        3.2231091916       -0.5354535895
 H         -4.9677127742        4.3140482623       -0.5013142597
 H         -4.0067289080        2.8697553712       -0.2144981266
 C         -5.2327078131        2.8018938478       -1.9864368969
 H         -6.2931259190        2.9295252039       -2.2147224737
 H         -4.6734472764        3.4710177407       -2.6447560553
 C         -4.8146004206        1.3733342396       -2.3311896840
 H         -3.7243510827        1.2934517331       -2.3137730420
 H         -5.1346227907        1.1669525972       -3.3552567220
 C         -5.3778597130        0.2790047217       -1.4095602065
 H         -5.4013542307       -0.6562369904       -1.9753522456
 H         -6.3891400123        0.5157511357       -1.0884630787
 H         -6.4505773099        3.5460022151        1.0223008270
 H         -6.9124792930        2.3352165643       -0.1528795043
 H         -6.4717278955        1.0706107678        1.7632648778
 H         -5.1632880922        2.1184619622        2.2944604574
 O         -3.6703973071        0.4314777082        1.9539548331
 C         -2.6309732558       -0.4676432769        1.8135201353
 O         -1.9018721840       -0.5701194164        2.8224753135
 O         -3.2829694769       -1.5054572618       -1.5924733584
 C         -1.3341478284       -2.1388904855        0.5500473510
 C         -0.1146582605       -1.4331713839        0.0159960900
 C         -0.1164047821       -0.8429968624       -1.2449396103
 C          1.0033749272       -0.1753745907       -1.7047949318
 C          2.1401242846       -0.0741654125       -0.9203986046
 C          2.1426485218       -0.6363533624        0.3483955937
 C          1.0204825240       -1.3183636635        0.8035545445
 H          1.0213780530       -1.7448430444        1.7978565726
 N          3.2879141652       -0.5369118910        1.1538145376
 S          4.0933770874        0.9318168954        1.2565973957
 O          4.7887469159        0.8864166612        2.5241123306
 O          3.2000562193        2.0479188754        1.0507113539
 C          5.2890805640        0.8478977325       -0.0610897979
 C          6.1367439489       -0.2418784221       -0.1021918748
 C          7.0789128264       -0.3190268714       -1.1152333506
 C          7.1600868464        0.6908481713       -2.0625300123
 C          6.3047855991        1.7804308434       -2.0052252227
 C          5.3589801717        1.8629827934       -0.9949253237
 H          4.6701090335        2.6890008649       -0.9139442793
 H          6.3697428846        2.5651201078       -2.7418293342
 H          7.8944992273        0.6286220050       -2.8499692027
 H          7.7457788806       -1.1647858958       -1.1631220788
 H          6.0442691031       -1.0027372350        0.6545999075
 H          3.1826380135       -0.9533752072        2.0676449560
 H          3.0117794751        0.4515097625       -1.2741707039
 H          0.9926301629        0.2738135258       -2.6864321860
 H         -1.0065229718       -0.9124821160       -1.8519968112
 H         -1.1308635573       -2.3987861127        1.6010800657
 C         -1.6707713504       -3.4327762636       -0.1792437374
 C         -0.9778326716       -3.8956572994       -1.4224875828
 C         -0.7091332720       -4.5834083141       -0.1203601033
 H         -1.0982904417       -5.5779442401        0.0366522189
 H          0.2462562218       -4.4032386389        0.3500788005
 H         -1.5756357570       -4.4017752597       -2.1650210646
 H         -0.1995435129       -3.2761667250       -1.8385379112
 H         -2.7239543245       -3.6798404257       -0.1001239504
