  62
        -98.94967849
 C         -0.7391838541       -1.7959353854       -0.1482103976
 C         -1.9267906203       -1.7207220191        0.6148834363
 C         -2.9518755472       -0.7923207243        0.1207723483
 C         -2.7134328284       -0.0846425998       -0.9985518342
 C         -3.6775936640        0.8880105940       -1.6154964666
 C         -3.4744746466        2.3201791710       -1.1019911198
 C         -3.3499075479        2.4283177069        0.4180006617
 H         -2.4351518343        1.9305358162        0.7526401800
 H         -3.2320600947        3.4878251803        0.6595702161
 C         -4.5484817931        1.8618511101        1.1918880565
 H         -4.8065421167        2.5600791382        1.9910191022
 H         -5.4142296905        1.7880894541        0.5319758787
 C         -4.2970592697        0.5053520943        1.8526662833
 H         -5.1074820455        0.3176736474        2.5624871572
 H         -3.3649725265        0.5470599681        2.4232416984
 C         -4.2311503990       -0.6971893156        0.9025225467
 H         -4.2778044606       -1.6053503839        1.5109759973
 H         -5.0958004940       -0.6864475130        0.2352786855
 H         -4.3175683845        2.9272825382       -1.4381345175
 H         -2.5668497813        2.7304820138       -1.5500496851
 H         -4.6926538896        0.5598141477       -1.3982780136
 H         -3.5280424241        0.8759907515       -2.6966046991
 O         -1.5525900665       -0.1709328872       -1.6968004977
 C         -0.5284398159       -1.0113612064       -1.2817147483
 O          0.4900173747       -0.9764200653       -1.9959826083
 O         -2.1260261287       -2.4090237229        1.6539954950
 C          0.3608831396       -2.7410473731        0.2921264427
 C          1.6424693991       -1.9983988769        0.5805891335
 C          2.8971641939       -2.5541258050        0.3571971812
 C          4.0444760802       -1.8476527839        0.6720266323
 C          3.9691306593       -0.5727468024        1.2025268276
 C          2.7196279899       -0.0090815166        1.4312358462
 C          1.5728150607       -0.7260489925        1.1313091253
 H          0.6103620141       -0.2762989409        1.3259650966
 N          2.5923071179        1.2840527804        1.9688657855
 S          1.4736767605        2.3242309304        1.2949788645
 O          1.9096908284        3.6394456270        1.7201894089
 O          0.1373221097        1.9566569592        1.6923452988
 C          1.6528331674        2.1885465885       -0.4738751475
 C          2.9134863922        2.1240397494       -1.0329812843
 C          3.0296331994        2.0476421912       -2.4108432218
 C          1.8926247265        2.0462753202       -3.2032970243
 C          0.6354949993        2.1241499684       -2.6279724250
 C          0.5148013257        2.1954051080       -1.2504407690
 H         -0.4433529311        2.2378157240       -0.7577611206
 H         -0.2510905739        2.1101115314       -3.2415461818
 H          1.9851579138        1.9775752823       -4.2756974252
 H          4.0065955241        1.9832391601       -2.8624859666
 H          3.7851307299        2.1305433224       -0.3992521876
 H          3.4663193217        1.7561498293        2.1506543479
 H          4.8644311175       -0.0199430143        1.4432162974
 H          5.0113873059       -2.2928474621        0.4944753845
 H          2.9753153060       -3.5433100768       -0.0631732688
 H          0.0062911078       -3.1811234566        1.2373770101
 C          0.5351946835       -3.8521613509       -0.7248328698
 C          0.9010044613       -5.2381806338       -0.2868738005
 C         -0.4851712431       -4.9484515892       -0.7758774046
 H         -0.7864485200       -5.3297322046       -1.7399294354
 H         -1.2867030293       -4.9102586037       -0.0523386050
 H          1.5522851776       -5.8234565790       -0.9185202013
 H          1.0359993900       -5.4112018796        0.7702435545
 H          0.9284385698       -3.4903070191       -1.6681430605
