  62
        -98.93515319
 C          1.6045383870        1.2639739836       -0.5469893451
 C          1.8459661997       -0.0419433736       -0.0635048801
 C          3.2602751344       -0.4203540279        0.1294699299
 C          4.2229063276        0.4689070972       -0.1735082059
 C          5.7189972657        0.3178858499       -0.0591039453
 C          6.3169282600       -1.0096262331       -0.5500276055
 C          6.8417904883       -1.8950431351        0.5814947333
 H          7.3331957548       -1.2589934206        1.3207914354
 H          7.6008137125       -2.5675584866        0.1755067710
 C          5.7870081524       -2.7548222763        1.2758967009
 H          6.2605933550       -3.2219003825        2.1426952226
 H          5.4765322765       -3.5578097878        0.6039196716
 C          4.5365735837       -2.0071954319        1.7436831995
 H          4.8057957968       -1.0426066320        2.1724869626
 H          4.0777789998       -2.5931339270        2.5429386017
 C          3.4840835082       -1.8172175622        0.6412135788
 H          2.5033888210       -2.1323588456        1.0111470773
 H          3.7102484713       -2.4709457875       -0.2060388222
 H          7.1545703355       -0.7737034436       -1.2084329461
 H          5.5819537781       -1.5497219762       -1.1446627773
 H          6.1318602546        1.1472651617       -0.6379084166
 H          6.0066168045        0.4918588673        0.9808085233
 O          3.9388853206        1.7224682123       -0.6330695546
 C          2.6398222035        2.1540149866       -0.8241338427
 O          2.5390370386        3.3285836711       -1.2340565908
 H         -2.2570967716        0.5548960000       -0.2638063234
 C         -1.8150888315        0.9958966212        0.6121043591
 C         -0.5949962635        1.6447924747        0.5223476122
 C         -0.0630744158        2.2291393262        1.6693689060
 C         -0.7321315453        2.1500368231        2.8748845702
 C         -1.9429942502        1.4853650491        2.9644484455
 C         -2.4845186919        0.9017371098        1.8254150041
 N         -3.6798612763        0.1824806841        1.8992390392
 S         -4.6527728880       -0.1218214521        0.5853939385
 O         -4.8494682909        1.0585635644       -0.2239453946
 O         -5.8517821553       -0.6934318290        1.1607740571
 C         -3.7914369224       -1.3682646984       -0.3500926265
 C         -3.1142265125       -2.3686297055        0.3173282476
 C         -2.4545579904       -3.3367931242       -0.4221022580
 C         -2.4864234961       -3.2920772337       -1.8072376255
 C         -3.1775710859       -2.2852095564       -2.4630335644
 C         -3.8384468241       -1.3136273009       -1.7290561888
 H         -4.3791941261       -0.5055341387       -2.1963912301
 H         -3.1996155585       -2.2512306301       -3.5408049559
 H         -1.9660905316       -4.0442491758       -2.3791808692
 H         -1.9103355544       -4.1178199888        0.0838195013
 H         -3.0987387558       -2.3710957075        1.3943964619
 H         -4.1709659347        0.2065508715        2.7788660318
 H         -2.4608934460        1.4136494838        3.9085714162
 H         -0.3076286209        2.6076154446        3.7560109009
 H          0.8870629258        2.7421084954        1.6010663740
 C          0.1792477979        1.7364429968       -0.7697876346
 H          0.2498068975        2.7971637085       -1.0522367001
 C         -0.4501568770        0.9666554518       -1.9122222420
 C         -1.5447313836        1.5858121700       -2.7261790807
 C         -0.1799308345        1.4065797970       -3.3183914736
 H         -0.0417229042        0.6515894742       -4.0774163059
 H          0.4400737085        2.2810594446       -3.4540506841
 H         -1.8609613064        2.5841400685       -2.4634051473
 H         -2.3452688429        0.9535513845       -3.0787245859
 H         -0.4950738132       -0.0999058149       -1.7218851816
 O          0.9269796027       -0.8599143955        0.2006549144
