  62
        -98.94142240
 C         -2.4064836074       -1.0640702839       -0.5653957979
 C         -3.4967148083       -0.6154699614        0.2270072007
 C         -4.0422206552        0.7048537133       -0.1004015190
 C         -3.5100254573        1.4108444182       -1.1140386445
 C         -3.9610223431        2.7669021855       -1.5842108062
 C         -3.3685988278        3.9324616083       -0.7802033187
 C         -3.9412202222        4.1088323066        0.6267904027
 H         -3.6062177722        5.0828965433        0.9886280658
 H         -5.0300281348        4.1370329080        0.5742253295
 C         -3.4998654632        3.0337135017        1.6300226296
 H         -2.6199721305        2.5121456153        1.2439539073
 H         -3.1982540543        3.5106130727        2.5655471110
 C         -4.5774868780        2.0048444655        1.9734679601
 H         -5.4036558984        2.4990585829        2.4893958343
 H         -4.1427397699        1.2713608446        2.6573831414
 C         -5.1400611608        1.2493030570        0.7626201317
 H         -5.7917020734        1.9015156712        0.1817426319
 H         -5.7254862033        0.4026320992        1.1291238852
 H         -3.5600364620        4.8481217531       -1.3445179178
 H         -2.2854005110        3.8004743475       -0.7181229243
 H         -3.6322359821        2.8616713506       -2.6212949475
 H         -5.0496887551        2.8210692898       -1.5572996456
 O         -2.4789091276        0.9418349713       -1.8624441968
 C         -1.8855712871       -0.2845251938       -1.5982306282
 O         -0.9336716556       -0.5432756142       -2.3631537037
 O         -3.9962447908       -1.2961005233        1.1619220397
 C         -1.8138193719       -2.4172087769       -0.2030091363
 C         -0.5660436355       -2.2183791419        0.6243730536
 C         -0.5617127559       -2.4991376579        1.9858234678
 C          0.5677471398       -2.2649020138        2.7509572570
 C          1.7137949079       -1.7432841172        2.1774824207
 C          1.7147213864       -1.4505804128        0.8201772641
 C          0.5869400614       -1.6991386841        0.0525059102
 H          0.5897109148       -1.4480925836       -0.9979697748
 N          2.8749032789       -0.9003741980        0.2201475979
 S          3.2593888389        0.6695846754        0.7210339628
 O          3.4552269946        0.6604043208        2.1481694182
 O          2.2809287697        1.6133328677        0.2195151316
 C          4.8206226356        0.9004885750       -0.1050303879
 C          4.8548605612        1.5486277507       -1.3243314453
 C          6.0707638826        1.6882629866       -1.9751812543
 C          7.2238558055        1.1759693145       -1.4000961472
 C          7.1729324803        0.5270461757       -0.1752958224
 C          5.9607657418        0.3849616891        0.4806689469
 H          5.8729975261       -0.1046575023        1.4361649140
 H          8.0722012988        0.1317900153        0.2687681814
 H          8.1681174605        1.2853782360       -1.9096473720
 H          6.1127118356        2.1936135734       -2.9267125404
 H          3.9343853106        1.9373949049       -1.7307217005
 H          2.7644724828       -0.8701895662       -0.7868685364
 H          2.5908600640       -1.5346539755        2.7671559201
 H          0.5548557119       -2.4870854561        3.8073655683
 H         -1.4605545120       -2.8833208147        2.4463950294
 H         -2.5667633452       -2.8952645838        0.4378895266
 C         -1.5648659127       -3.3122261398       -1.3999675598
 C         -1.4313011031       -4.7890322555       -1.1846885091
 C         -2.6497466921       -4.2370760136       -1.8602679663
 H         -2.7720156797       -4.3976657301       -2.9208747908
 H         -3.5795112274       -4.2296352650       -1.3103843740
 H         -0.7144973768       -5.3330061521       -1.7801652490
 H         -1.5352741051       -5.1571599945       -0.1752965242
 H         -0.9491780266       -2.8555015028       -2.1634373831
