  62
        -98.93431203
 C          2.4064627206        1.1739819782        0.0439641987
 C          2.3831224681       -0.2384292728        0.0509129011
 C          3.6704535220       -0.9233032838        0.2916303613
 C          4.7729423727       -0.1788930009        0.4984715900
 C          6.1868870699       -0.6460634687        0.7220608194
 C          6.8646191054       -1.1245916894       -0.5718417721
 C          6.0002821643       -2.0184033064       -1.4570878811
 H          6.5514226988       -2.2010451596       -2.3833743115
 H          5.0869521124       -1.4836118117       -1.7243629053
 C          5.6366674629       -3.3737886229       -0.8554438562
 H          6.5532292779       -3.9185906697       -0.6186414907
 H          5.1044877833       -3.9378896036       -1.6257412555
 C          4.7563796135       -3.3359386200        0.3957733573
 H          5.3369874645       -3.0802379435        1.2779805029
 H          4.3762988690       -4.3489583720        0.5572846300
 C          3.5357267954       -2.4270302017        0.2884331939
 H          2.8510171387       -2.6606759431        1.1131717634
 H          2.9787946896       -2.6782162369       -0.6218785223
 H          7.7827946227       -1.6507219723       -0.3055482078
 H          7.1374846211       -0.2425076897       -1.1560858212
 H          6.2081557180       -1.4227791396        1.4805538037
 H          6.7418845005        0.2118630886        1.1077718518
 O          4.7427682918        1.1851490725        0.4915918902
 C          3.5792689048        1.8929563677        0.2689193483
 O          3.7108297039        3.1333808438        0.3027347981
 O          1.3354373095       -0.9131564440       -0.1390217073
 C          1.1305704292        1.9558997093       -0.2098940777
 C          0.0720278339        1.5550345862        0.7883579515
 C          0.3883843613        1.5840869423        2.1445702326
 C         -0.5436011972        1.2154886791        3.0942421057
 C         -1.8089739330        0.8062187650        2.7111492576
 C         -2.1406784955        0.7875336992        1.3620721359
 C         -1.2051258638        1.1726332370        0.4106673721
 H         -1.4839604952        1.1431409910       -0.6283110451
 N         -3.4407472098        0.4235934761        0.9588848776
 S         -3.6624166255       -0.6013239921       -0.3658951280
 O         -3.0383649427       -1.8834370828       -0.1217595117
 O         -3.2800763550        0.0855888184       -1.5721737176
 C         -5.4378792358       -0.7697810269       -0.3141244151
 C         -6.0032577549       -1.9068005339        0.2306287888
 C         -7.3846394696       -2.0105227119        0.2824246293
 C         -8.1727979424       -0.9797246304       -0.2063169311
 C         -7.5908163431        0.1554648510       -0.7510587059
 C         -6.2106094991        0.2646874201       -0.8066254500
 H         -5.7141850128        1.1230706340       -1.2280062460
 H         -8.2069378393        0.9536629628       -1.1324941580
 H         -9.2473711231       -1.0627888301       -0.1652343621
 H         -7.8396178125       -2.8933049663        0.7020191078
 H         -5.3510094931       -2.6866236696        0.5899562779
 H         -3.9857077001        0.0727786506        1.7366593598
 H         -2.5340852042        0.5058725968        3.4527519815
 H         -0.2817412033        1.2373400902        4.1416414243
 H          1.3826475585        1.8918721400        2.4408958788
 H          1.3831747017        3.0125590436       -0.0358908176
 C          0.6972632075        1.7919203124       -1.6514780406
 C         -0.0891014498        2.8719905007       -2.3293475123
 C          1.3422136176        2.6378551352       -2.7062087449
 H          1.5590085834        2.1905808842       -3.6647256426
 H          2.0823458789        3.3543337634       -2.3800035695
 H         -0.8612582548        2.5822095124       -3.0261938565
 H         -0.3228037551        3.7545035032       -1.7531871548
 H          0.4711839743        0.7616198171       -1.9055164443
