  62
        -98.94472380
 C          2.0150250617        1.3686572572        0.3083578591
 C          2.6538932911        0.7639394019       -0.8012086744
 C          3.8051382579       -0.0944954595       -0.4851215945
 C          4.1806480795       -0.2512919161        0.7973464995
 C          5.2949567977       -1.1426537511        1.2622402465
 C          4.7774779248       -2.5497254755        1.5929356394
 C          3.8964097790       -3.1569524746        0.5007864639
 H          3.6136586026       -4.1593385338        0.8301639045
 H          2.9747567272       -2.5755438057        0.4188116656
 C          4.5634299501       -3.2414259339       -0.8792588087
 H          5.6451583637       -3.1511043214       -0.7736101420
 H          4.3602305371       -4.2259337865       -1.3059127939
 C          4.0645763555       -2.2066864991       -1.8898541664
 H          2.9722186316       -2.2306833591       -1.9312207296
 H          4.4344481453       -2.4920221447       -2.8782722716
 C          4.5057260427       -0.7595786419       -1.6360372990
 H          5.5888832820       -0.7225315427       -1.5037546085
 H          4.2460752760       -0.1742337567       -2.5229320844
 H          5.6351909195       -3.2001353022        1.7732336145
 H          4.1924302906       -2.4963585372        2.5141650610
 H          6.0572723080       -1.1971863166        0.4877243049
 H          5.7331964262       -0.7061394569        2.1613039496
 O          3.5437212575        0.3494961922        1.8352723491
 C          2.4384398671        1.1573435761        1.6196441699
 O          1.9242197849        1.6160083986        2.6607047818
 H         -0.0606496542       -0.1564101200        0.7735249240
 C         -0.6082589771        0.2169422745       -0.0837628854
 C         -0.2918403993        1.4716775750       -0.5914090591
 C         -1.0156492244        1.9468068530       -1.6765023647
 C         -2.0015707346        1.1669195678       -2.2576045814
 C         -2.2944394667       -0.0914568189       -1.7667391928
 C         -1.5925457783       -0.5665719540       -0.6652908564
 N         -1.8962685497       -1.8349885654       -0.1432969725
 S         -3.5088631365       -2.2506347165        0.0227836235
 O         -3.5450642368       -3.1927967227        1.1194702922
 O         -4.0172193154       -2.7341225123       -1.2367453818
 C         -4.3450571993       -0.7381677684        0.4672144134
 C         -3.9397699537       -0.0809370237        1.6120561677
 C         -4.5589130360        1.1095202454        1.9561531291
 C         -5.5687970070        1.6194111184        1.1542652096
 C         -5.9687317140        0.9444481004        0.0116663526
 C         -5.3507949663       -0.2453185556       -0.3389261070
 H         -5.6270932944       -0.8006760284       -1.2203925437
 H         -6.7556597313        1.3421512587       -0.6085548690
 H         -6.0461060920        2.5481784618        1.4240023180
 H         -4.2480545872        1.6352018392        2.8448532844
 H         -3.1542392291       -0.5040756018        2.2180373458
 H         -1.3652117964       -2.0817611765        0.6783388420
 H         -3.0439219691       -0.7182569712       -2.2220073053
 H         -2.5465759202        1.5433305060       -3.1095312928
 H         -0.8005099213        2.9235934969       -2.0766258472
 C          0.8033501210        2.2569555549        0.0897821886
 H          0.4475353567        2.5368467439        1.0922225812
 C          1.2023318736        3.5146563911       -0.6532449467
 C          0.4481660042        4.7910442014       -0.4363692447
 C          1.8325818997        4.6356351022        0.1154318111
 H          2.6390791025        5.1868910479       -0.3443048748
 H          1.9497309578        4.5008378764        1.1811923986
 H          0.3054691953        5.4549558214       -1.2755378558
 H         -0.3776233422        4.7724046707        0.2584521245
 H          1.5906346801        3.3073340450       -1.6435728622
 O          2.2832526711        0.9282211863       -1.9920320649
