  62
        -98.93604764
 C         -2.3074931116       -0.6895458612        0.0676155879
 C         -3.3677226405       -0.5198424648        0.9902867915
 C         -4.3667333957        0.5037556865        0.6505571948
 C         -4.2079007950        1.2242159839       -0.4747699223
 C         -5.1737769926        2.2502262601       -0.9957254213
 C         -6.3774801861        1.5512539454       -1.6595828599
 C         -7.7096741819        1.7745801617       -0.9435688816
 H         -8.0651401608        2.7837572390       -1.1620337195
 H         -8.4306073446        1.0725074927       -1.3679168608
 C         -7.6860226792        1.6058909198        0.5787023130
 H         -7.2797080805        2.5063974940        1.0415807136
 H         -8.7250942968        1.5296967552        0.9060831604
 C         -6.9130771894        0.3908445756        1.1077598357
 H         -7.4704571437       -0.0258499565        1.9491899690
 H         -6.8553707737       -0.3892898824        0.3483985643
 C         -5.4962602351        0.7070395617        1.6223890277
 H         -5.4674738515        1.7302156398        2.0072688324
 H         -5.2703419050        0.0364582086        2.4567722030
 H         -6.4796849417        1.9009865197       -2.6879986377
 H         -6.1658732795        0.4812000081       -1.7118002891
 H         -5.5044387307        2.8909094006       -0.1812964290
 H         -4.6384189650        2.8590735617       -1.7244599573
 O         -3.1654507352        1.0447341220       -1.3264887169
 C         -2.1898912650        0.0889004469       -1.0833255095
 O         -1.2993219400        0.0358660274       -1.9521142048
 O         -3.4713818141       -1.1924539256        2.0514085425
 C         -1.2443142530       -1.7327468367        0.3671491605
 C          0.0733150026       -1.0344398976        0.5946701755
 C          0.2161636370       -0.2367030963        1.7276988658
 C          1.3932174349        0.4443097021        1.9688910359
 C          2.4528794221        0.3514702188        1.0825314568
 C          2.3221506178       -0.4416888117       -0.0482182853
 C          1.1405678495       -1.1353770595       -0.2822944272
 H          1.0531559385       -1.7421177106       -1.1698402856
 N          3.3857908752       -0.5253708949       -0.9607013671
 S          4.9313509232       -0.8233310013       -0.3866087128
 O          5.6408607873       -1.4153851360       -1.4997629573
 O          4.9029305590       -1.5911779304        0.8367368596
 C          5.5978591628        0.7979515625       -0.0740246961
 C          5.5802054191        1.7192006361       -1.1027984710
 C          6.1077094816        2.9809798528       -0.8799690062
 C          6.6440974647        3.2975106538        0.3593910327
 C          6.6571467943        2.3604832117        1.3810755976
 C          6.1298276304        1.0967610046        1.1649555997
 H          6.1134463200        0.3382069549        1.9313319444
 H          7.0744602156        2.6085421560        2.3437967369
 H          7.0540688439        4.2805321898        0.5296038463
 H          6.0984423973        3.7125125223       -1.6719290683
 H          5.1566922823        1.4339956773       -2.0514795757
 H          3.1820602947       -1.0781808215       -1.7802217315
 H          3.3726306795        0.8843094719        1.2605599329
 H          1.4881241209        1.0573287723        2.8523263929
 H         -0.6150328601       -0.1576936505        2.4150514080
 H         -1.5505394060       -2.1954222921        1.3159936742
 C         -1.2044619702       -2.8013777613       -0.7039741802
 C         -0.5547319097       -4.1200255890       -0.4115515556
 C         -2.0450461223       -4.0305042380       -0.5402084477
 H         -2.5136916468       -4.4543639659       -1.4157141255
 H         -2.6421394192       -4.1103366873        0.3562868725
 H          0.0005583860       -4.6092814186       -1.1976638484
 H         -0.1365661386       -4.2613375369        0.5737360844
 H         -1.1095857274       -2.3959863448       -1.7047861862
