  62
        -98.93645936
 C          2.1516020580        0.9907361683        0.1519139858
 C          2.6118757792        0.0411502561        1.0897125332
 C          2.9295916015       -1.3060484013        0.5785248904
 C          2.7296215052       -1.5646549464       -0.7275532316
 C          2.9983041638       -2.8432310353       -1.4760281132
 C          4.4932689490       -3.0673861889       -1.7547772699
 C          5.4166948762       -2.7816669270       -0.5734802327
 H          6.4464777292       -2.8735382246       -0.9282768414
 H          5.2754549002       -1.7484444785       -0.2513943911
 C          5.2498149325       -3.7151154003        0.6231067782
 H          5.4209356782       -4.7445498753        0.3009848696
 H          6.0290875091       -3.4586829373        1.3451600573
 C          3.8997587737       -3.6485426802        1.3402537970
 H          4.0139358847       -4.1650540707        2.2977895086
 H          3.1335498364       -4.1870909953        0.7889040374
 C          3.4192204239       -2.2371590356        1.6622268138
 H          2.5950151656       -2.3057565753        2.3828495424
 H          4.2153045169       -1.6973772910        2.1877640276
 H          4.6300749576       -4.0976333067       -2.0874891838
 H          4.7853623765       -2.4060580308       -2.5740879926
 H          2.5717282132       -3.6852216656       -0.9387440641
 H          2.4724995936       -2.7608762660       -2.4300796189
 O          2.2619011346       -0.6203376502       -1.5943498254
 C          1.9492984069        0.6625455502       -1.1883223918
 O          1.5150982759        1.4016490357       -2.0928692882
 H         -0.1939583197        0.7093270683        1.2273242105
 C         -0.5799073071        1.5963268850        0.7377341951
 C          0.3029277954        2.6022522049        0.3633834015
 C         -0.2128804705        3.7300917979       -0.2603508847
 C         -1.5678971946        3.8266356080       -0.5306279781
 C         -2.4360550873        2.8074485727       -0.1849777572
 C         -1.9323087922        1.6871355752        0.4598726090
 N         -2.8146358383        0.6239760136        0.7936169085
 S         -3.1280859630       -0.4061190211       -0.5150610796
 O         -2.1136928124       -1.4403584026       -0.5730523199
 O         -3.3132729155        0.3920893501       -1.6987848124
 C         -4.6847040560       -1.1169091854       -0.0153922223
 C         -5.8259682216       -0.3518978745       -0.1591479419
 C         -7.0393501034       -0.8730443393        0.2596458285
 C         -7.0904496049       -2.1430958923        0.8151298930
 C         -5.9363834357       -2.8988294935        0.9530332181
 C         -4.7191757481       -2.3822452858        0.5364732453
 H         -3.7978050116       -2.9364073888        0.6175798579
 H         -5.9786950147       -3.8866025324        1.3831350891
 H         -8.0358148987       -2.5473352174        1.1409367400
 H         -7.9390399463       -0.2888878445        0.1524933083
 H         -5.7373413859        0.6255576976       -0.6032819259
 H         -2.4221750399        0.0458786146        1.5269375167
 H         -3.4862462959        2.8572122400       -0.4198588828
 H         -1.9493812571        4.7045060947       -1.0295395147
 H          0.4497516116        4.5277347016       -0.5540901074
 C          1.7722386407        2.3818316702        0.6283569550
 H          1.9330232271        2.3747141853        1.7168300176
 C          2.6692759988        3.4297361718        0.0060742740
 C          2.9309703100        4.7203037784        0.7219876369
 C          4.0125281563        3.6887796915        0.6175847798
 H          4.8487312516        3.8789948562       -0.0382106103
 H          4.2708364288        3.1245401264        1.5018249552
 H          2.4588645896        4.8632407560        1.6820536050
 H          3.0278000016        5.6228233115        0.1377924308
 H          2.5995470247        3.4451023461       -1.0758682602
 O          2.7498298607        0.3008239512        2.3173469727
