  62
        -98.93591938
 C         -1.8843979904       -1.2103532796       -0.0491533400
 C         -2.1290559999        0.1356079806       -0.4105072896
 C         -3.3981840896        0.7258058410        0.0629409509
 C         -4.2361257997       -0.0061983188        0.8186659108
 C         -5.5552364095        0.3438276315        1.4753271812
 C         -6.3237434390        1.5988923920        1.0695440117
 C         -6.8813136393        1.5761517726       -0.3531837082
 H         -7.6820009796        0.8337131030       -0.4008454582
 H         -7.3217583589        2.5534960329       -0.5625054778
 C         -5.8746147597        1.2393591925       -1.4503168785
 H         -6.4040992599        1.2597920630       -2.4067767984
 H         -5.5058560701        0.2212624623       -1.3091970589
 C         -4.6831623393        2.1889862820       -1.5584644985
 H         -5.0397867089        3.2161072122       -1.6576269681
 H         -4.1413849996        1.9335764821       -2.4731249586
 C         -3.6788121291        2.1287242413       -0.3943531587
 H         -2.7264933990        2.5323769610       -0.7505699388
 H         -4.0020365587        2.7463883812        0.4402793716
 H         -5.7120188486        2.4827855717        1.2247125918
 H         -7.1721244588        1.6783008521        1.7548337319
 H         -5.3459483192        0.3988537511        2.5495273912
 H         -6.1983183799       -0.5304929782        1.3326923011
 O         -3.9426076202       -1.2928065691        1.1690790404
 C         -2.7893586606       -1.9222252194        0.7421892800
 O         -2.6841619210       -3.1052230096        1.1231783996
 O         -1.3361368498        0.8421521305       -1.0857508295
 C         -0.6531448909       -1.9885240400       -0.4868720805
 C          0.5259959694       -1.7217555907        0.4121031794
 C          1.2550776191       -2.7684243812        0.9637315689
 C          2.3518274894       -2.5161726619        1.7702554688
 C          2.7455260500       -1.2176977822        2.0398703991
 C          2.0233029603       -0.1649330317        1.4924870195
 C          0.9232249501       -0.4200859810        0.6867222197
 H          0.3685440503        0.4024970094        0.2601391800
 N          2.4179902509        1.1645950181        1.7498391898
 S          3.9700822810        1.5916028375        1.2829502196
 O          4.9173473309        0.9397646169        2.1516672492
 O          3.9906284216        3.0362674275        1.2832740500
 C          4.1323653204        0.9666481080       -0.3786923506
 C          4.6288998698       -0.3055458122       -0.5819952411
 C          4.6773104794       -0.8051145318       -1.8736395912
 C          4.2333721495       -0.0289530013       -2.9329386109
 C          3.7420362601        1.2486584988       -2.7123618304
 C          3.6829819805        1.7508497684       -1.4225580903
 H          3.3075334310        2.7388814685       -1.2087724399
 H          3.3970067902        1.8509905992       -3.5372619402
 H          4.2681754691       -0.4224219311       -3.9362580910
 H          5.0570327489       -1.7986180420       -2.0486912716
 H          4.9715562198       -0.8744801626        0.2663477887
 H          1.7604945912        1.8415111384        1.3880698301
 H          3.6006702102       -1.0021300227        2.6600256389
 H          2.9054055791       -3.3393498723        2.1956145084
 H          0.9491731486       -3.7855213110        0.7667055887
 H         -0.9300961713       -3.0468682099       -0.3608544307
 C         -0.3241735811       -1.7853171497       -1.9613978605
 C          0.8448500592       -0.9942556700       -2.4568467005
 C          0.8535473385       -2.4868353900       -2.5715666709
 H          0.7395376181       -2.9361605397       -3.5461361310
 H          1.5035014284       -3.0320236605       -1.9040080312
 H          0.7032477992       -0.4017173497       -3.3474062103
 H          1.4994013295       -0.5351761105       -1.7333386805
 H         -1.2254675112       -1.7350045691       -2.5646311503
