  62
        -98.93220892
 C         -2.5886491289       -1.2238175704        0.1862282699
 C         -3.0125608493       -0.2450891202        1.1177637996
 C         -4.2172775995        0.5378645493        0.7845921893
 C         -4.8534928193        0.2762736489       -0.3721523707
 C         -6.0703548694        0.9538270984       -0.9443249010
 C         -5.7545590897        2.3351139683       -1.5397155813
 C         -4.8453184800        3.2112289788       -0.6821806015
 H         -3.9029070599        2.6883477691       -0.5089907813
 H         -4.6148815602        4.1122698487       -1.2567491717
 C         -5.4370926703        3.6492533890        0.6554606884
 H         -4.7261838605        4.3422865393        1.1125791282
 H         -6.3646848904        4.1970246387        0.4748006081
 C         -5.7206089601        2.5308984192        1.6609255886
 H         -6.6353101499        1.9998503689        1.4113991787
 H         -5.8920508503        3.0031487394        2.6327228685
 C         -4.5748872298        1.5423219295        1.8534976690
 H         -4.7712134698        0.9521087797        2.7568989991
 H         -3.6539606700        2.0964129598        2.0682155889
 H         -6.6965476698        2.8543512680       -1.7242602916
 H         -5.2588634196        2.1826321082       -2.5015182813
 H         -6.4414164392        0.3076339781       -1.7429779309
 H         -6.8476107295        1.0259949284       -0.1893288011
 O         -4.4129975190       -0.6774832212       -1.2391958104
 C         -3.2804962088       -1.4413323809       -1.0054706001
 O         -3.0252726685       -2.2497483910       -1.9159324399
 O         -2.4052675994       -0.0299336998        2.2027202496
 C         -1.3487436388       -2.0186888600        0.5534268902
 C         -0.1077070789       -1.3574254198        0.0102876402
 C          0.0088910412       -1.0338914001       -1.3381524499
 C          1.1587046210       -0.4317266699       -1.8154230000
 C          2.2080721909       -0.1323681594       -0.9635046899
 C          2.1012491208       -0.4474668091        0.3841065001
 C          0.9474094210       -1.0596511293        0.8595627002
 H          0.8623052009       -1.2927149390        1.9125235202
 N          3.1475716207       -0.1246797986        1.2598757901
 S          4.7332872808       -0.4345514683        0.8135351204
 O          4.8207932812       -1.5752129485       -0.0678768193
 O          5.4585951607       -0.5287108078        2.0612283205
 C          5.2377304605        1.0430776516       -0.0418916500
 C          5.8162962806        0.9495715315       -1.2924316099
 C          6.2159106404        2.1113565714       -1.9346073801
 C          6.0315957300        3.3391538915       -1.3176977905
 C          5.4513765099        3.4156667917       -0.0601802206
 C          5.0513837201        2.2580982118        0.5878575197
 H          4.5995120900        2.2759294719        1.5655951597
 H          5.3090209296        4.3723835218        0.4160658392
 H          6.3415440598        4.2419719215       -1.8198794007
 H          6.6676712405        2.0539830313       -2.9118820701
 H          5.9345309509       -0.0260023586       -1.7367108996
 H          2.9775703506       -0.3756605884        2.2226292302
 H          3.1041313308        0.3378184207       -1.3340739300
 H          1.2384554511       -0.1892063902       -2.8643580500
 H         -0.8091330787       -1.2640316505       -2.0042696199
 H         -1.2975320989       -1.9576925397        1.6524499402
 C         -1.4476509483       -3.4936862501        0.1906566206
 C         -0.6295503081       -4.1496344201       -0.8765041392
 C         -0.3382189981       -4.4321836897        0.5648692009
 H         -0.5909214579       -5.4009468496        0.9684029112
 H          0.5590125617       -3.9997502393        0.9831696809
 H         -1.1077593178       -4.9117265204       -1.4724525090
 H          0.0748173218       -3.5474428401       -1.4280243193
 H         -2.4588814783       -3.8690618503        0.3112130906
