  62
        -98.94067814
 C          1.5179847937        1.2002369100       -0.0119565570
 C          2.6034972998        0.9244674001        0.8551298820
 C          3.3524793014       -0.3191326731        0.6080943393
 C          2.9668040100       -1.1338323594       -0.3914626190
 C          3.4908760343       -2.4849839931       -0.8309664332
 C          4.8644518131       -2.9748268066       -0.3791453362
 C          6.0435985428       -2.1660585170       -0.9174879622
 H          6.9581951057       -2.5559328202       -0.4652260943
 H          6.1129778171       -2.3254449076       -1.9965962719
 C          5.9746635950       -0.6598942897       -0.6769178071
 H          5.1303047454       -0.2383437322       -1.2262509915
 H          6.8821088326       -0.2136440132       -1.0929338357
 C          5.8772097707       -0.2344605434        0.7872404594
 H          6.0101285648        0.8501774686        0.8226549069
 H          6.6905457396       -0.6884307751        1.3565644530
 C          4.5453718900       -0.5603029678        1.4869959370
 H          4.5386378224       -1.5771722534        1.8721788244
 H          4.4391097601        0.1141023060        2.3415033275
 H          4.9678602804       -3.9968635553       -0.7539011592
 H          4.9080632361       -3.0314126413        0.7044502744
 H          3.4582171570       -2.4744166574       -1.9250572054
 H          2.7430885715       -3.2170415426       -0.5060897863
 O          1.9025257694       -0.8338530103       -1.1907609971
 C          1.1653095401        0.3304514067       -1.0415936830
 O          0.2510204250        0.4552490553       -1.8784465704
 O          2.9311172770        1.6839605079        1.8048311164
 C          0.6961571757        2.4538594681        0.2429218403
 C         -0.6632951698        1.9981670544        0.7096093630
 C         -0.8456731231        1.6385317695        2.0423189463
 C         -2.0473475562        1.1086078989        2.4738614212
 C         -3.0835134372        0.8983284044        1.5800398296
 C         -2.9042057941        1.2420297522        0.2470723976
 C         -1.7129153545        1.8145941172       -0.1766592350
 H         -1.5905694864        2.0699553487       -1.2168286424
 N         -3.9252457693        0.9692935328       -0.6820728241
 S         -4.6008232200       -0.5609218562       -0.6094191546
 O         -4.9954808790       -0.8742192499       -1.9655092040
 O         -5.6687592637       -0.5619535179        0.3612732945
 C         -3.3075531842       -1.6657085479       -0.0600274871
 C         -2.0901889922       -1.6592293534       -0.7111955317
 C         -1.0951232034       -2.5201626062       -0.2766326131
 C         -1.3309237797       -3.3721648447        0.7907393592
 C         -2.5614820810       -3.3717980554        1.4292756567
 C         -3.5589271068       -2.5102251601        1.0029856635
 H         -4.5263825496       -2.4697242734        1.4767917762
 H         -2.7438490261       -4.0356935508        2.2589054976
 H         -0.5509380066       -4.0375786944        1.1263175751
 H         -0.1378888755       -2.5036508193       -0.7744484488
 H         -1.9038176921       -0.9833904485       -1.5310718441
 H         -3.6676093273        1.1958818496       -1.6321919950
 H         -4.0209650903        0.4662054917        1.8913291449
 H         -2.1762070380        0.8422683091        3.5117059356
 H         -0.0240875351        1.7649149572        2.7332250407
 H          1.1955217907        2.9682345959        1.0742447670
 C          0.6623024341        3.3785909772       -0.9550011839
 C          0.1684190043        4.7828888897       -0.7805190039
 C          1.6243161240        4.5249863895       -1.0233516217
 H          2.0425866908        4.7892951313       -1.9831339956
 H          2.3108346257        4.6517543428       -0.1991934041
 H         -0.4148447103        5.2281639411       -1.5720258007
 H         -0.1354865321        5.0826795951        0.2110040301
 H          0.4343446421        2.8732993624       -1.8856553934
