  62
        -98.94490958
 C         -1.8677913128       -1.0745789996       -0.1912084597
 C         -3.0141376534       -1.1551953161        0.6450320432
 C         -4.2414577823       -0.5381820274        0.1338371020
 C         -4.2383481930        0.0404763682       -1.0803120060
 C         -5.4151736047        0.6872025199       -1.7586733077
 C         -5.6579608125        2.1426991059       -1.3364981545
 C         -6.2249366307        2.3252161047        0.0719494969
 H         -6.5506035199        3.3641292300        0.1538979607
 H         -7.1084484319        1.6972421769        0.1908429659
 C         -5.2257670253        2.0311045956        1.1998068530
 H         -4.2097707589        2.0349194800        0.7976736730
 H         -5.2750874752        2.8267522298        1.9466695104
 C         -5.4639572177        0.7092737460        1.9300686977
 H         -6.4233750807        0.7463681727        2.4507857012
 H         -4.6779842861        0.5867433695        2.6796434167
 C         -5.4493186884       -0.5265610435        1.0210029253
 H         -5.4061335696       -1.4167452717        1.6532279994
 H         -6.3602117109       -0.5650075262        0.4238635192
 H         -6.3650815306        2.5746243850       -2.0485169063
 H         -4.7190091298        2.6942758784       -1.4253355121
 H         -6.3139881028        0.0987756992       -1.5719271402
 H         -5.2045805926        0.6702403871       -2.8302205276
 O         -3.1282985880        0.0827014668       -1.8604023768
 C         -1.9174432429       -0.4468767028       -1.4357001755
 O         -0.9973175159       -0.2886963738       -2.2648275100
 O         -3.0107840906       -1.7294532953        1.7658401281
 C         -0.5962608914       -1.7113203237        0.3444223533
 C          0.3482962974       -0.6838808197        0.9206417555
 C          0.7031748753       -0.7118036676        2.2639875042
 C          1.5981888165        0.2111432215        2.7778604647
 C          2.1578980764        1.1783690900        1.9628591996
 C          1.8030446596        1.2177186036        0.6206602718
 C          0.9111947313        0.2889477170        0.1064979989
 H          0.6384202266        0.3277668942       -0.9376614222
 N          2.3845226688        2.1882221180       -0.2233801139
 S          4.0580526013        2.1183527292       -0.3210888433
 O          4.6267221803        2.7484373387        0.8440540479
 O          4.4036354641        2.7105019405       -1.5938151994
 C          4.4238495114        0.3726837343       -0.3092950774
 C          4.0935446943       -0.3663801572       -1.4277646929
 C          4.2946642744       -1.7365326026       -1.4087272707
 C          4.8117503018       -2.3419716134       -0.2736602746
 C          5.1384437480       -1.5857723731        0.8409446234
 C          4.9412526852       -0.2143570808        0.8272310074
 H          5.1808929991        0.4108491462        1.6714414189
 H          5.5407336278       -2.0601576572        1.7213314565
 H          4.9613815812       -3.4101214734       -0.2587377824
 H          4.0416944412       -2.3248950079       -2.2763865543
 H          3.6942559226        0.1373209863       -2.2939513700
 H          1.9865424983        2.1810947096       -1.1523036908
 H          2.8634500072        1.9010455406        2.3400323628
 H          1.8639021584        0.1762682975        3.8232553731
 H          0.2642788273       -1.4586606839        2.9091624856
 H         -0.9296017685       -2.3565871798        1.1680972420
 C          0.1259288981       -2.5703207493       -0.6764380699
 C          1.0857692450       -3.6146769242       -0.1946889735
 C         -0.2253134135       -4.0214518951       -0.7962417118
 H         -0.2294031250       -4.4700147157       -1.7783325968
 H         -0.9923392309       -4.4057958861       -0.1396979993
 H          1.9873182886       -3.7835303165       -0.7620766556
 H          1.2097129975       -3.7243720406        0.8717078851
 H          0.3705726700       -2.0413046926       -1.5880260156
