  62
        -98.94593672
 C          1.5760055890        1.5698684107       -0.2993907196
 C          1.4321855778        0.2034994502       -0.6427664224
 C          2.6828999152       -0.5624748519       -0.7469665793
 C          3.8567671002        0.0568201677       -0.5273412829
 C          5.1953741325       -0.6218355928       -0.5297103390
 C          5.5652421204       -1.1199052204        0.8749044925
 C          4.4541768786       -1.9120835490        1.5646862671
 H          4.8398353090       -2.2323629357        2.5351214210
 H          3.6091814639       -1.2473580995        1.7587186801
 C          3.9646789215       -3.1367849917        0.7792398825
 H          4.7026815618       -3.4101890628        0.0241712615
 H          3.8772727826       -3.9805213353        1.4669549494
 C          2.5989338049       -2.9599693277        0.1127112315
 H          1.8746901113       -2.5963651426        0.8458126510
 H          2.2594667635       -3.9417553592       -0.2266676267
 C          2.5672099131       -2.0189158286       -1.0974814915
 H          3.3419608413       -2.3073247746       -1.8105894700
 H          1.5911615990       -2.1295741652       -1.5781534458
 H          6.4612075402       -1.7385478427        0.7967589373
 H          5.8044016004       -0.2540156870        1.4968068028
 H          5.1732502424       -1.4559995940       -1.2281734359
 H          5.9468985437        0.0971550003       -0.8601124807
 O          3.9541351678        1.3763672786       -0.2194145164
 C          2.8201094455        2.1606594948       -0.0822588320
 O          3.0480233264        3.3468339999        0.2321594194
 H         -2.2327223040        1.3911400465       -0.2673070484
 C         -1.7906919711        1.3268131278        0.7118648744
 C         -0.5213699006        1.8258875744        0.9516312782
 C          0.0029705124        1.7319951580        2.2392693245
 C         -0.7237625475        1.1474622960        3.2575087439
 C         -1.9844489075        0.6314284900        3.0103177483
 C         -2.5170664658        0.7233750911        1.7304299049
 N         -3.7975898890        0.2249614985        1.4574789896
 S         -4.1881874299       -0.4223933008       -0.0285773512
 O         -4.3320944042        0.6257576549       -1.0082844650
 O         -5.3872116027       -1.1925619254        0.2362433435
 C         -2.8791181788       -1.5396973422       -0.4955020296
 C         -2.3741359308       -2.4141327969        0.4448344186
 C         -1.4126482645       -3.3315530832        0.0567646625
 C         -0.9833599413       -3.3675649876       -1.2598710222
 C         -1.4989472077       -2.4822603318       -2.1912521959
 C         -2.4542384175       -1.5568215068       -1.8065472665
 H         -2.8720130832       -0.8417600591       -2.4975614833
 H         -1.1537612688       -2.5018789140       -3.2129779297
 H         -0.2368787361       -4.0865564654       -1.5601773875
 H         -0.9982183691       -4.0139740085        0.7818969315
 H         -2.7284997382       -2.3716532791        1.4622046789
 H         -4.2382990139       -0.2756719720        2.2145341111
 H         -2.5523112950        0.1663556121        3.8017069256
 H         -0.3045411242        1.0840784622        4.2504425079
 H          0.9946171682        2.1226107358        2.4258312310
 C          0.3380744302        2.4337489558       -0.1294547506
 H          0.6917209985        3.4144352184        0.2191087569
 C         -0.3772747204        2.6131947013       -1.4509346498
 C         -1.3068008399        3.7720751841       -1.6442099895
 C          0.0151130058        3.7448095382       -2.3500787456
 H          0.0283423443        3.5756390802       -3.4163717317
 H          0.7945939640        4.4081850362       -2.0039084548
 H         -2.2068022243        3.6197363472       -2.2209788980
 H         -1.4266991453        4.4579199521       -0.8189897855
 H         -0.6357697342        1.6713991465       -1.9212958865
 O          0.3227318187       -0.3502705634       -0.8488101562
