  62
        -98.92888221
 C          0.7706693070        1.3463336429        0.9853957022
 C          1.7963873144        1.5405038343        0.0272006710
 C          2.9081450703        0.5747928009        0.0717515422
 C          2.8893108158       -0.4333866952        0.9596253538
 C          3.9631174998       -1.4675031750        1.1796081410
 C          4.2616335746       -2.4189222488        0.0049005998
 C          5.4001157534       -1.9586138223       -0.9136834841
 H          6.0508142599       -1.2807930315       -0.3600585846
 H          6.0080634445       -2.8245084715       -1.1836804894
 C          4.9600234546       -1.2935668570       -2.2212665688
 H          4.6359387918       -2.0654708055       -2.9230292673
 H          5.8313638924       -0.7998282261       -2.6568516994
 C          3.8249360525       -0.2769825565       -2.0967945618
 H          2.8754268831       -0.7968323283       -1.9510354551
 H          3.7410231305        0.2592197541       -3.0440104766
 C          3.9980884847        0.7349157808       -0.9482835814
 H          4.9756743889        0.6240445126       -0.4814166189
 H          3.9152978060        1.7527586591       -1.3342584459
 H          3.3548290056       -2.5760296407       -0.5767727449
 H          4.5434044451       -3.3789882509        0.4405136318
 H          3.6277985624       -2.0530203012        2.0380797250
 H          4.8835899645       -0.9550121228        1.4696469889
 O          1.8643496350       -0.6055671224        1.8399458794
 C          0.7917288848        0.2648609641        1.8712797787
 O         -0.0682810967       -0.0203684800        2.7301838284
 O          1.8153027240        2.4655749255       -0.8206793533
 C         -0.4608297890        2.2436911166        1.0709177530
 C         -1.2591087220        2.0496150274       -0.1942308831
 C         -1.0754316129        2.7445564563       -1.3842756506
 C         -1.8023379397        2.4069781408       -2.5133281535
 C         -2.7091336610        1.3639117600       -2.4947878127
 C         -2.8995432724        0.6574018981       -1.3120283695
 C         -2.1894001275        1.0138916209       -0.1769128660
 H         -2.3548028117        0.4645641178        0.7387828258
 N         -3.8047620143       -0.4089511021       -1.2578298561
 S         -3.7439043596       -1.5787838065       -0.0799533541
 O         -4.5133672154       -2.6726400072       -0.6369478418
 O         -4.2333484859       -1.0516917906        1.1696380652
 C         -2.0468157947       -2.1044575777        0.0978869911
 C         -1.2085711139       -2.1506326713       -0.9977315642
 C          0.0761760854       -2.6434175211       -0.8346679618
 C          0.4945914638       -3.0929310977        0.4077342814
 C         -0.3579645303       -3.0375396032        1.4978652578
 C         -1.6393132446       -2.5363092167        1.3434928230
 H         -2.3253406266       -2.4589457053        2.1717399648
 H         -0.0267861785       -3.3689623776        2.4686792941
 H          1.4915175885       -3.4847189966        0.5331564419
 H          0.7443278869       -2.6780960260       -1.6812570029
 H         -1.5524408645       -1.8013788751       -1.9579084990
 H         -4.1574792284       -0.7445288219       -2.1407183435
 H         -3.2632869631        1.0951857260       -3.3808424509
 H         -1.6461595992        2.9589032766       -3.4278337687
 H         -0.3396157893        3.5253151072       -1.4485302051
 H         -1.0616342725        1.7957506296        1.8776887197
 C         -0.1517443863        3.6526607136        1.5593078008
 C          0.5493976225        4.7372637968        0.8001584353
 C         -0.9124989436        4.8617868339        1.1017586795
 H         -1.2247290932        5.5818175498        1.8436249397
 H         -1.6140973061        4.7328178178        0.2922770523
 H          1.2382266664        5.3568687038        1.3574987652
 H          0.8789404437        4.5375378072       -0.2046176524
 H          0.0864733385        3.6189698297        2.6204110245
