  62
        -98.94249461
 C         -1.1756730596       -1.6887094108        0.2164828301
 C         -1.5679986403       -0.6965860408        1.1424828298
 C         -2.7817104805        0.0793634986        0.8276911093
 C         -3.4434251801       -0.1935554218       -0.3120429208
 C         -4.6780829802        0.4699013076       -0.8635378313
 C         -4.3867372206        1.8430322076       -1.4850275514
 C         -3.5168066012        2.7611724681       -0.6309529513
 H         -2.5398568411        2.2982169785       -0.4741124009
 H         -3.3390822414        3.6755393781       -1.2042930314
 C         -4.1224901718        3.1639854681        0.7123026485
 H         -5.0931123519        3.6348224076        0.5400504281
 H         -3.4598676222        3.9173096284        1.1462447686
 C         -4.2964008716        2.0416362181        1.7398540486
 H         -5.1905115213        1.4558029077        1.5427106184
 H         -4.4441934221        2.5150615082        2.7148461285
 C         -3.0887062213        1.1211054687        1.8757752091
 H         -2.1828911715        1.7325709091        1.9695948393
 H         -3.1676562213        0.5719521588        2.8217069192
 H         -3.8698677203        1.6846752577       -2.4349540512
 H         -5.3391347007        2.3336832972       -1.6956023717
 H         -5.0627511797       -0.1896953627       -1.6449029813
 H         -5.4391120705        0.5514428274       -0.0932586415
 O         -3.0245803394       -1.1578500918       -1.1818029005
 C         -1.8744986992       -1.8961704413       -0.9711956101
 O         -1.5962089886       -2.6901550513       -1.8906213999
 O         -0.9195351707       -0.4521569804        2.1976766800
 C          0.1137347506       -2.4492500102        0.4611489606
 C          1.1663148007       -2.0116223999       -0.5304961492
 C          2.1106897313       -2.8681943496       -1.0824314888
 C          3.0609614313       -2.3825656794       -1.9649387686
 C          3.1087102308       -1.0406254994       -2.2982552388
 C          2.1708215603       -0.1749975897       -1.7468978292
 C          1.2132369003       -0.6690269400       -0.8775888894
 H          0.4747541699        0.0087425598       -0.4809412797
 N          2.1647541098        1.1942600503       -2.0498653894
 S          1.7241881690        2.3034735903       -0.8769542597
 O          0.3026595690        2.2615551397       -0.6444348501
 O          2.2432563787        3.5613009104       -1.3720895397
 C          2.6407176188        1.8136880809        0.5734228806
 C          4.0044091887        2.0408136514        0.5523437410
 C          4.7727746786        1.6365575419        1.6305630313
 C          4.1679952685        1.0079717018        2.7091198312
 C          2.7996336486        0.7917010312        2.7174669608
 C          2.0234675288        1.1966923608        1.6416156706
 H          0.9575714288        1.0287404203        1.6342859003
 H          2.3194730886        0.3047126512        3.5513568708
 H          4.7646496684        0.6872951622        3.5484688014
 H          5.8368335385        1.8094092524        1.6270924316
 H          4.4332509688        2.5444924815       -0.2988175790
 H          2.9438900999        1.5173017205       -2.6035918692
 H          3.8532513709       -0.6672309292       -2.9842418586
 H          3.7823908217       -3.0601854291       -2.3955603183
 H          2.0973821116       -3.9156133996       -0.8291527287
 H          0.4517238002       -2.1310261799        1.4599187406
 C         -0.1173834587       -3.9448505703        0.4802722607
 C          0.7283718914       -4.8286448098        1.3465323711
 C         -0.7012189188       -4.5689487504        1.7115116006
 H         -1.4204538685       -5.3654192807        1.5940990806
 H         -0.9065627794       -3.9166086403        2.5478802505
 H          0.9907710619       -5.8097548198        0.9804059813
 H          1.4949449010       -4.3589183694        1.9440671012
 H         -0.4474826783       -4.3274693706       -0.4784936893
