  62
        -98.94472232
 C         -2.0236283350       -1.3717751842        0.3034530281
 C         -2.6522027720       -0.7542063411       -0.8049396638
 C         -3.7952155327        0.1148206406       -0.4879636538
 C         -4.1752202552        0.2661923611        0.7938538341
 C         -5.2810446103        1.1673418805        1.2601914980
 C         -4.7479322187        2.5653264446        1.6044263477
 C         -3.8539050182        3.1698521322        0.5213406272
 H         -3.5599631939        4.1659383901        0.8598943995
 H         -2.9393726812        2.5773410513        0.4391729738
 C         -4.5130489702        3.2734807240       -0.8611875858
 H         -5.5962970083        3.1955681462       -0.7614354775
 H         -4.2957645070        4.2587655055       -1.2790297705
 C         -4.0219904229        2.2406276428       -1.8775283002
 H         -2.9292228727        2.2515606536       -1.9136222117
 H         -4.3835931558        2.5381664376       -2.8654049875
 C         -4.4820318647        0.7970902474       -1.6371135501
 H         -5.5662044650        0.7722838765       -1.5104371582
 H         -4.2251045094        0.2154205585       -2.5272167939
 H         -5.5984099233        3.2249564894        1.7854728557
 H         -4.1682679304        2.4976225214        2.5281222356
 H         -6.0387156320        1.2372417707        0.4823718171
 H         -5.7290848912        0.7292706656        2.1536424090
 O         -3.5505937599       -0.3499142249        1.8302348027
 C         -2.4518040150       -1.1666372051        1.6141255466
 O         -1.9476178207       -1.6383148400        2.6542306303
 H          0.0451688930        0.1507963919        0.7536633173
 C          0.5993116040       -0.2320138244       -0.0952092282
 C          0.2840669969       -1.4904680532       -0.5941290264
 C          1.0164610906       -1.9772314483       -1.6683546052
 C          2.0098372160       -1.2053679114       -2.2473793274
 C          2.3012420173        0.0569722371       -1.7658048384
 C          1.5901288416        0.5441660559       -0.6756493296
 N          1.8896846970        1.8176184718       -0.1640768375
 S          3.4994169270        2.2421169126        0.0035380772
 O          3.5264006965        3.1993932523        1.0873193590
 O          4.0119905473        2.7104074246       -1.2600165283
 C          4.3403666104        0.7399756561        0.4731699669
 C          3.9256806520        0.0910861806        1.6194133798
 C          4.5501974231       -1.0904615119        1.9838569487
 C          5.5748494666       -1.5998491035        1.2005972204
 C          5.9839363772       -0.9333384823        0.0562764898
 C          5.3606301814        0.2474398143       -0.3146828258
 H          5.6435766393        0.7959949248       -1.1983095478
 H          6.7822910673       -1.3306282437       -0.5494396411
 H          6.0564665688       -2.5215829707        1.4863127999
 H          4.2320834758       -1.6096229506        2.8738233442
 H          3.1287645639        0.5135244608        2.2108171002
 H          1.3531997900        2.0728693070        0.6513655702
 H          3.0560851088        0.6777406249       -2.2204663142
 H          2.5617001796       -1.5910657055       -3.0907024430
 H          0.8023184467       -2.9570815258       -2.0615388883
 C         -0.8183432517       -2.2683388104        0.0840388033
 H         -0.4660232961       -2.5540189539        1.0861205662
 C         -1.2261110090       -3.5208508817       -0.6632028562
 C         -0.4873342538       -4.8058201088       -0.4438393618
 C         -1.8731203016       -4.6359241549        0.1001504197
 H         -2.6829659444       -5.1776506290       -0.3649999141
 H         -1.9949269413       -4.5011981573        1.1653980591
 H         -0.3471500166       -5.4701192521       -1.2831460506
 H          0.3344510035       -4.7974743992        0.2559241171
 H         -1.6062594534       -3.3078472507       -1.6555237114
 O         -2.2785558073       -0.9153486305       -1.9952640459
