  62
        -98.94026019
 C         -1.7450032774       -0.8164326686        0.1260924442
 C         -3.0480602088       -1.0618625066        0.6134847353
 C         -4.0065370690        0.0588905578        0.5502266246
 C         -3.5888236915        1.2391825007        0.0553234608
 C         -4.3878290706        2.4996276103       -0.1431960762
 C         -5.3190325564        2.4236843734       -1.3641447156
 C         -6.0841920116        1.1107929710       -1.5090296806
 H         -6.6153952071        1.1398076594       -2.4641328620
 H         -5.3725479816        0.2846260201       -1.5606242246
 C         -7.1098378885        0.8307374872       -0.4131940378
 H         -7.6355582648       -0.0873113910       -0.6881748935
 H         -7.8436430541        1.6396859359       -0.3943273435
 C         -6.5484003710        0.6511787683        0.9987513925
 H         -7.3462287902        0.2246669374        1.6138488741
 H         -6.2946294750        1.6090917913        1.4446103916
 C         -5.3654521501       -0.3070243637        1.0971395961
 H         -5.2018243544       -0.5504199499        2.1540536307
 H         -5.6345026734       -1.2578117447        0.6228758560
 H         -4.7095587701        2.5531887287       -2.2618761198
 H         -6.0243107613        3.2548343081       -1.3126998599
 H         -3.6680353432        3.3047613621       -0.3056951303
 H         -4.9477695479        2.7326290492        0.7575315881
 O         -2.3148163269        1.4329303467       -0.3921333516
 C         -1.3669878792        0.4272121608       -0.3756236614
 O         -0.2520075180        0.7604417313       -0.8191989612
 O         -3.4056673795       -2.1752814456        1.0856026343
 C         -0.7244873171       -1.9392712809        0.1453895210
 C          0.4893949709       -1.5244281190        0.9381411437
 C          0.3133525301       -1.0686623130        2.2432661940
 C          1.3937173425       -0.6778415873        3.0090369320
 C          2.6753941711       -0.7250770550        2.4870878385
 C          2.8632179534       -1.1827757205        1.1897321588
 C          1.7754994724       -1.5891488751        0.4268171771
 H          1.9554294693       -1.9334452427       -0.5772417300
 N          4.1556114648       -1.2672950085        0.6359051499
 S          4.4985344556       -0.4383597962       -0.7790248553
 O          3.6467188834       -0.9041793597       -1.8410665175
 O          5.9207565913       -0.6215918352       -0.9737574232
 C          4.1719290674        1.2709349679       -0.3863584355
 C          2.8707995811        1.7316197955       -0.3710529074
 C          2.6376064253        3.0459556830        0.0056742320
 C          3.6951135151        3.8694572275        0.3582216917
 C          4.9961602125        3.3890948328        0.3371562577
 C          5.2380165493        2.0767184348       -0.0330567982
 H          6.2321627687        1.6609081645       -0.0678760336
 H          5.8184359338        4.0310641272        0.6094107044
 H          3.5032630864        4.8904090203        0.6490293628
 H          1.6214772066        3.4075281832        0.0186370943
 H          2.0539062965        1.0844725447       -0.6497995686
 H          4.8933296376       -1.0936480627        1.3049222867
 H          3.5220264454       -0.4149012814        3.0807608904
 H          1.2388531904       -0.3272912794        4.0182281205
 H         -0.6890040842       -1.0252612074        2.6474676421
 H         -1.2136606365       -2.7701268426        0.6755966501
 C         -0.4064990634       -2.3857849105       -1.2659310125
 C          0.0475666108       -3.7898121011       -1.5265159429
 C         -1.3237308182       -3.3552539705       -1.9463913567
 H         -1.5252649045       -3.2231793014       -2.9989427068
 H         -2.1706069421       -3.7161499796       -1.3809353343
 H          0.7929418391       -3.9543781023       -2.2902417513
 H          0.1318518848       -4.4529723728       -0.6788202813
 H          0.0199028604       -1.5939114843       -1.8728985199
