  62
        -98.94143416
 C         -2.3034115937       -1.1009056359       -0.5800207738
 C         -3.6034647753       -0.9244284659       -0.0414877984
 C         -4.2898927935        0.3182920885       -0.4075943427
 C         -3.6766557495        1.2067111023       -1.2105261651
 C         -4.2498747505        2.5143451487       -1.6852347578
 C         -4.0784308448        3.6681460700       -0.6876064158
 C         -4.9737671190        3.5963482124        0.5500222401
 H         -4.9108088275        4.5663813400        1.0471301081
 H         -6.0097236284        3.4555400318        0.2401482002
 C         -4.5812644930        2.5026846845        1.5533785847
 H         -4.5873908711        2.9167948062        2.5642756707
 H         -3.5589518136        2.1722103703        1.3524436723
 C         -5.5052877695        1.2846513441        1.5575645731
 H         -5.1114078375        0.5597920070        2.2745247508
 H         -6.5015813484        1.5821414780        1.8919752909
 C         -5.6346955788        0.5847230730        0.1984159554
 H         -6.1259173538       -0.3787061819        0.3546493756
 H         -6.2446618546        1.1840731719       -0.4768721977
 H         -3.0313197289        3.7098559510       -0.3776843902
 H         -4.3044556226        4.5951404610       -1.2196549424
 H         -5.3072730842        2.3879369122       -1.9190924596
 H         -3.7178704611        2.7718582331       -2.6035425071
 O         -2.4316883526        0.9984660636       -1.7132666276
 C         -1.7045917271       -0.1406366883       -1.3957389053
 O         -0.5708872314       -0.1720516851       -1.9129609838
 O         -4.1642585930       -1.7691941232        0.7056821500
 C         -1.5352044974       -2.3526085050       -0.1858060348
 C         -0.4239347109       -1.9262274731        0.7410258775
 C         -0.7046516681       -1.7149437008        2.0882284219
 C          0.2667615051       -1.2313206659        2.9445359351
 C          1.5354618536       -0.9384073903        2.4746635529
 C          1.8212238433       -1.1377959487        1.1312370395
 C          0.8509596572       -1.6441288989        0.2765382611
 H          1.0814704936       -1.7773272015       -0.7685509476
 N          3.1059328035       -0.8285759226        0.6370715517
 S          3.6987347965        0.6987397995        1.0584531649
 O          4.2806922717        0.6090928199        2.3752597428
 O          2.6695158001        1.7018367040        0.8946895139
 C          4.9839793970        0.9158398920       -0.1560945799
 C          6.2748432214        0.5271249586        0.1461981182
 C          7.2604920316        0.6739592921       -0.8170529489
 C          6.9400552465        1.2020381427       -2.0586993808
 C          5.6390921676        1.5868126820       -2.3476251674
 C          4.6482811559        1.4419648410       -1.3894487571
 H          3.6252239644        1.7346929282       -1.5691796914
 H          5.3917946441        1.9977742617       -3.3133253974
 H          7.7082940160        1.3167636654       -2.8069685966
 H          8.2731641631        0.3772419489       -0.5968066841
 H          6.4759857496        0.1288956802        1.1268928787
 H          3.1416106578       -0.9412781219       -0.3681227582
 H          2.2973495278       -0.5372467814        3.1235860329
 H          0.0341370060       -1.0713404401        3.9868679178
 H         -1.7031731688       -1.9160898736        2.4511421033
 H         -2.2465776054       -2.9601732911        0.3893118520
 C         -1.0693140854       -3.1506586575       -1.3846503655
 C         -0.5879080597       -4.5558200640       -1.1845124555
 C         -1.8989455824       -4.3023760576       -1.8640856532
 H         -1.9719755147       -4.4756233708       -2.9272709288
 H         -2.8071857059       -4.5233817077       -1.3229723156
 H          0.2406821527       -4.9074695630       -1.7797665795
 H         -0.6049954384       -4.9474727220       -0.1787529876
 H         -0.5801708842       -2.5484142415       -2.1401550900
