  62
        -98.93554286
 C          2.1211897108        0.9298477709       -0.3920768113
 C          3.0543714208        0.6142066220        0.6285125155
 C          3.5907633987       -0.7565834476        0.6552193379
 C          3.1729300824       -1.6420032528       -0.2681951371
 C          3.4888701992       -3.1102723886       -0.4635618095
 C          4.6472971948       -3.7649752140        0.2838484627
 C          6.0342092342       -3.2906693957       -0.1496765167
 H          6.2289575326       -3.6664360092       -1.1572502347
 H          6.7728921534       -3.7358047056        0.5201690107
 C          6.2343190166       -1.7775491505       -0.1765805518
 H          5.5564436149       -1.3309170565       -0.9067331874
 H          7.2533724737       -1.5812956556       -0.5205660402
 C          6.0538033183       -1.0703652590        1.1649490082
 H          6.3738240711       -0.0329571555        1.0361960876
 H          6.7023953180       -1.5298002071        1.9132696907
 C          4.6167396597       -1.0454750306        1.7132649699
 H          4.5452800723       -0.2296076527        2.4384580033
 H          4.3768718825       -1.9675536329        2.2376723700
 H          4.5849914297       -4.8367931625        0.0768465253
 H          4.5178789762       -3.6445053501        1.3554156374
 H          3.6351144902       -3.2443097140       -1.5402089136
 H          2.5654207641       -3.6434315510       -0.2102072117
 O          2.2698154807       -1.2960334123       -1.2295430720
 C          1.7195342177       -0.0287201014       -1.3200282598
 O          0.9106098001        0.0874217047       -2.2640031373
 O          3.4259629999        1.4523633898        1.4932692366
 C          1.5582198009        2.3423712604       -0.3872108363
 C          0.2129343522        2.3570672063        0.2993736520
 C          0.0219314442        3.0438175840        1.4922789225
 C         -1.2014159302        3.0079492079        2.1395046608
 C         -2.2559814850        2.2812140719        1.6161510637
 C         -2.0712359750        1.5877172512        0.4279185563
 C         -0.8516373788        1.6399000205       -0.2283381313
 H         -0.7143566337        1.0860711658       -1.1456239957
 N         -3.1352682733        0.8119898081       -0.1016711486
 S         -3.4303395724       -0.6087134616        0.7717955483
 O         -3.6758422116       -0.2562096928        2.1466090687
 O         -2.3710252274       -1.5698164270        0.5385667647
 C         -4.9408831056       -1.1648383921        0.0077725812
 C         -4.8785234870       -2.0651621716       -1.0380067356
 C         -6.0565387067       -2.4659310745       -1.6487420007
 C         -7.2694305011       -1.9589402716       -1.2075538863
 C         -7.3155057604       -1.0549523074       -0.1566965280
 C         -6.1414091423       -0.6508572729        0.4582952791
 H         -6.1279951676        0.0424775262        1.2826259068
 H         -8.2607520973       -0.6648877755        0.1845812734
 H         -8.1842202460       -2.2728032552       -1.6849665855
 H         -6.0227743994       -3.1703563855       -2.4643178178
 H         -3.9141285053       -2.4405461599       -1.3422597813
 H         -2.9216435263        0.5303739187       -1.0516764353
 H         -3.2038992865        2.2213848855        2.1243279565
 H         -1.3328727713        3.5454448410        3.0663684857
 H          0.8483202823        3.5898666324        1.9237493610
 H          2.2539164202        2.9272399351        0.2292931213
 C          1.4845464494        2.9764274996       -1.7617647689
 C          1.4241724956        4.4697153172       -1.8685783132
 C          2.6651459029        3.7381451497       -2.2815913583
 H          2.9000152628        3.6671297021       -3.3329312317
 H          3.5346843358        3.8072442696       -1.6442808126
 H          0.8041448674        4.9053982946       -2.6367260162
 H          1.4527283671        5.0374396335       -0.9509735882
 H          0.9159314077        2.3953386013       -2.4757457495
