  62
        -98.93832964
 C         -1.1399157239       -1.5360631695        0.3504949234
 C         -1.7028722645       -0.5823243149        1.2326680366
 C         -2.8871797043        0.1526239367        0.7590786932
 C         -3.3365344910       -0.0598968753       -0.4913593614
 C         -4.5275081090        0.5113137341       -1.2315103557
 C         -5.2356265729        1.7631212851       -0.7206254924
 C         -4.3974064856        3.0399187865       -0.7731504457
 H         -4.2366335979        3.3091647015       -1.8202420095
 H         -4.9726062821        3.8436203809       -0.3075911498
 C         -3.0263072697        2.9638371691       -0.1049634573
 H         -2.3860564585        2.2578518123       -0.6399420868
 H         -2.5508998571        3.9441296004       -0.2043756408
 C         -3.0392496438        2.6034193577        1.3795230966
 H         -3.6925675529        3.2923388655        1.9189874567
 H         -2.0215553223        2.7447212461        1.7544977513
 C         -3.4624627845        1.1613974004        1.7109371385
 H         -4.5449084630        1.0686470645        1.7594800910
 H         -3.0657111335        0.9131492454        2.6997464089
 H         -5.6151933608        1.5994425796        0.2837027811
 H         -6.1044305844        1.9137599388       -1.3673520121
 H         -4.1801934689        0.6896546040       -2.2542811616
 H         -5.2607015100       -0.3011030478       -1.2912511913
 O         -2.7324465729       -0.9537869811       -1.3262846430
 C         -1.6165378195       -1.6879385473       -0.9511035461
 O         -1.1675583211       -2.4152324635       -1.8564621607
 O         -1.2323339078       -0.3494150430        2.3787598606
 C          0.1079080475       -2.2678190881        0.8082878820
 C          1.2219650905       -2.0748339408       -0.1917780281
 C          2.0858187117       -3.0796361231       -0.6067359886
 C          3.1058527721       -2.7970448680       -1.4998988786
 C          3.3015998500       -1.5152432226       -1.9803358914
 C          2.4387264891       -0.5030200166       -1.5739525252
 C          1.4138676486       -0.7932465864       -0.6905662425
 H          0.7268383690       -0.0104768725       -0.4101036503
 N          2.5861218163        0.8111354116       -2.0367415475
 S          2.0686766319        2.0973856397       -1.1089133902
 O          0.6311821255        2.2021611261       -1.1441273204
 O          2.7941931012        3.2311014968       -1.6431552723
 C          2.6400061223        1.7438187196        0.5444638171
 C          1.7392283179        1.5495840215        1.5708794275
 C          2.2158258185        1.2295722995        2.8322155245
 C          3.5803019259        1.1141723542        3.0457286347
 C          4.4752217363        1.3260989785        2.0075202263
 C          4.0032008934        1.6411651075        0.7441740451
 H          4.6691808180        1.8183988608       -0.0844841702
 H          5.5362357523        1.2406126781        2.1780858515
 H          3.9465017236        0.8587658216        4.0275494674
 H          1.5104061441        1.0586645827        3.6299748712
 H          0.6810696918        1.6339270027        1.3758907829
 H          3.4312667394        1.0058396535       -2.5511342202
 H          4.0997676329       -1.2996021095       -2.6736638804
 H          3.7638968240       -3.5891371561       -1.8234367615
 H          1.9519951856       -4.0871483096       -0.2491661175
 H          0.4053352577       -1.7309307102        1.7263933006
 C         -0.1077868819       -3.7184684954        1.2139306674
 C         -1.4759713617       -4.2484190170        1.5200606246
 C         -0.7453261619       -4.7210032963        0.3008435031
 H         -0.3575858588       -5.7293625705        0.2962214871
 H         -1.0772466732       -4.3721327059       -0.6640013090
 H         -1.5892019936       -4.9270764902        2.3523313716
 H         -2.3144905466       -3.5806229971        1.3825621982
 H          0.6932795243       -4.0851157677        1.8483324843
