  62
        -98.94897688
 C          1.6433503118        1.2766101243       -0.2938357246
 C          0.5684616143        1.6957230420       -1.1115415255
 C         -0.3949621719        2.6118587385       -0.4905299907
 C         -0.2315364155        2.9623703915        0.7981568999
 C         -1.1586223991        3.8624181535        1.5629033867
 C         -2.2524631275        3.0644928189        2.2850089997
 C         -2.9665480679        2.0445456358        1.3976309799
 H         -3.7409491058        1.5751469147        2.0103318801
 H         -2.2579697425        1.2564524382        1.1302611852
 C         -3.6020914773        2.6328165791        0.1299920576
 H         -3.7233980709        3.7107167890        0.2461324703
 H         -4.6001723031        2.2055031005        0.0119395373
 C         -2.8371891588        2.3436684175       -1.1626943181
 H         -3.4857519741        2.5977598117       -2.0051452594
 H         -2.6166620099        1.2752414497       -1.2249098010
 C         -1.5237921127        3.1126155925       -1.3468933502
 H         -1.6911662750        4.1786845597       -1.1801694163
 H         -1.1988214509        2.9715780957       -2.3818359371
 H         -2.9793936883        3.7689184464        2.6952040353
 H         -1.7951632394        2.5217662288        3.1159398470
 H         -1.6101635601        4.5758052059        0.8756444015
 H         -0.5718715555        4.4076144101        2.3045644153
 O          0.7941498809        2.5123587459        1.5643723773
 C          1.7428550255        1.6428846734        1.0482906274
 O          2.6163358570        1.2918299729        1.8655066659
 O          0.4253507977        1.3244849331       -2.3088479806
 C          2.6744700054        0.3223843942       -0.8714286431
 C          2.6062206708       -0.9863286280       -0.1247973056
 C          3.7145373290       -1.6493140871        0.3839118160
 C          3.5560300599       -2.8218424995        1.1034072975
 C          2.2989172172       -3.3451600369        1.3414064235
 C          1.1841354728       -2.6961670937        0.8209271620
 C          1.3487752829       -1.5453341883        0.0699292111
 H          0.4814440095       -1.0404800730       -0.3307364571
 N         -0.1087399550       -3.2027808947        1.0229503146
 S         -1.4238956467       -2.1782761225        1.1518576468
 O         -1.0541924206       -0.8692838866        1.6380810264
 O         -2.3775549718       -2.9039352657        1.9665984122
 C         -2.0893569085       -2.0555385567       -0.4973026591
 C         -3.2443298363       -1.3116496013       -0.6431668043
 C         -3.8203249489       -1.1973492544       -1.8982684083
 C         -3.2327098554       -1.8263745466       -2.9847438301
 C         -2.0765901551       -2.5725155208       -2.8218663139
 C         -1.4972736632       -2.6938280373       -1.5676859777
 H         -0.5967588309       -3.2662608497       -1.4181525160
 H         -1.6195114433       -3.0602400812       -3.6678460335
 H         -3.6776185912       -1.7328299570       -3.9627126527
 H         -4.7189589440       -0.6148749436       -2.0234067547
 H         -3.6661931769       -0.8354719750        0.2279624447
 H         -0.1749964140       -3.9794366973        1.6636888926
 H          2.1755971751       -4.2431855704        1.9273200779
 H          4.4241256880       -3.3252619929        1.5012636297
 H          4.7003877063       -1.2416989060        0.2324266667
 H          2.3568062778        0.1445835054       -1.9098346940
 C          4.0510419059        0.9510413945       -0.8806919494
 C          5.0660388735        0.5280389538       -1.8993835757
 C          4.4182109385        1.8750981046       -2.0017242516
 H          5.0061921708        2.7516324978       -1.7747253146
 H          3.6809459562        2.0328628553       -2.7752486241
 H          6.1035239020        0.4812205592       -1.6047346224
 H          4.7737866037       -0.2291441182       -2.6109022200
 H          4.3966049365        1.2094480518        0.1139445025
