  62
        -98.94362109
 C         -1.2731176905       -0.8551804705        0.2010330495
 C         -1.7288880905        0.2831342597        0.9127933292
 C         -2.7867282604        1.0723027596        0.2697788290
 C         -3.1905960503        0.7391123394       -0.9691832410
 C         -4.2924940102        1.4216472293       -1.7255199512
 C         -5.6478480903        0.7514220694       -1.4587757111
 C         -5.9471166104        0.5298877098        0.0239241689
 H         -6.9396417104        0.0794108799        0.0912674690
 H         -5.2367287405       -0.1962227901        0.4257474091
 C         -5.9049277103        1.8049347000        0.8777379786
 H         -5.9801987902        2.6831933399        0.2355523984
 H         -6.7730942104        1.8118388202        1.5400691285
 C         -4.6659926404        1.9326669201        1.7660955786
 H         -4.8387568304        2.7457853803        2.4760303584
 H         -4.5345156305        1.0150905603        2.3451943889
 C         -3.3506137203        2.2349707899        1.0368008587
 H         -2.5999723504        2.4877916900        1.7916372286
 H         -3.4805050502        3.1003465197        0.3831398384
 H         -6.4307901802        1.3696080794       -1.9016661813
 H         -5.6574318003       -0.2196536207       -1.9592493309
 H         -4.3288051102        2.4702740793       -1.4358148715
 H         -4.0672472602        1.3578982490       -2.7915726012
 O         -2.6599366503       -0.2982491508       -1.6635600607
 C         -1.6899007404       -1.1215251108       -1.1039674904
 O         -1.2966659804       -2.0237282310       -1.8662584802
 O         -1.2672576605        0.6239282700        2.0353877992
 C         -0.1981377306       -1.7054872104        0.8520700198
 C          0.9767359295       -1.8680070607       -0.0795588301
 C          1.5886415994       -3.0809662608       -0.3655310297
 C          2.6850336294       -3.1266727811       -1.2099659496
 C          3.2092761295       -1.9725789513       -1.7624293799
 C          2.6011504796       -0.7534050212       -1.4842383702
 C          1.4934207996       -0.7145519609       -0.6553050903
 H          1.0063813796        0.2318041092       -0.4750994506
 N          3.0958206797        0.4476790287       -2.0145803405
 S          3.0135714298        1.8390311489       -1.0928188409
 O          1.6756728098        2.3771559090       -1.1064688111
 O          4.0399857199        2.6958686887       -1.6482755510
 C          3.4791828796        1.3251577593        0.5517865693
 C          4.7779958296        0.8909528392        0.7364312995
 C          5.1645619695        0.4371889595        1.9863171996
 C          4.2478561594        0.4196887398        3.0268476896
 C          2.9506596895        0.8649789099        2.8280433794
 C          2.5591385796        1.3239957696        1.5798335792
 H          1.5532926696        1.6704576296        1.3985587391
 H          2.2316861694        0.8527368401        3.6319088293
 H          4.5449021093        0.0593140101        3.9990259697
 H          6.1746702295        0.0956606795        2.1447676998
 H          5.4640718897        0.9281786890       -0.0939877205
 H          3.9667678498        0.3702677185       -2.5181509404
 H          4.0687890896       -2.0117328715       -2.4136835598
 H          3.1442806594       -4.0772211912       -1.4348557294
 H          1.1965344393       -3.9932025207        0.0526124705
 H          0.1471045494       -1.0904500202        1.7015439397
 C         -0.6965676307       -3.0140796002        1.4470135601
 C         -2.1417652008       -3.2074125600        1.7945884701
 C         -1.5314837407       -3.9853684703        0.6694703603
 H         -1.3570458608       -5.0414948503        0.8152221606
 H         -1.7917579307       -3.7193307106       -0.3425621898
 H         -2.3858672308       -3.7249910798        2.7102493702
 H         -2.8268089107       -2.4087311400        1.5479290098
 H          0.0197235592       -3.4405323201        2.1424121203
