  62
        -98.93226684
 C          2.2593178466        0.7355442336       -0.3585614093
 C          3.5996636158        1.1338997878       -0.1251237297
 C          4.5040510237        0.1356346173        0.4708396984
 C          4.0203126645       -1.0767476983        0.7976985501
 C          4.6816701440       -2.2718440689        1.4520381080
 C          6.2010754368       -2.3537229875        1.5746539653
 C          6.9428571833       -2.5105301624        0.2474244568
 H          8.0151332894       -2.4541142035        0.4468895669
 H          6.7308839515       -3.5051441774       -0.1529506479
 C          6.5844585978       -1.4936908193       -0.8334001888
 H          5.5336867000       -1.6064742824       -1.1083552933
 H          7.1763497989       -1.7281004174       -1.7223331043
 C          6.8494911257       -0.0337791981       -0.4710216086
 H          7.8886887641        0.0846891819       -0.1584015151
 H          6.7030625533        0.5622454951       -1.3759531288
 C          5.9388632972        0.5525034248        0.6216010088
 H          6.3066081489        0.3098744656        1.6157297698
 H          5.9525197947        1.6420447968        0.5244867970
 H          6.5807018523       -1.4983086363        2.1256484465
 H          6.4163698603       -3.2392331115        2.1789310243
 H          4.3186129977       -3.1487286967        0.9063793694
 H          4.2487111038       -2.3353512805        2.4566392224
 O          2.7096363490       -1.4003493056        0.6000144390
 C          1.7998168754       -0.5252049605        0.0216735381
 O          0.6551077336       -1.0020840869       -0.0900268532
 O          4.0273770870        2.2872000549       -0.3979152172
 C          1.3224934065        1.7660779380       -0.9648643502
 C          0.0788615380        1.8782328755       -0.1215699443
 C          0.1497179163        2.5391172731        1.1014473201
 C         -0.9578441119        2.6214782040        1.9233643764
 C         -2.1582673200        2.0457535630        1.5448898130
 C         -2.2355805735        1.3745487292        0.3326359897
 C         -1.1229971403        1.3018317117       -0.4970424023
 H         -1.1856525632        0.7584848343       -1.4269342903
 N         -3.4505596389        0.7929161700       -0.0762458402
 S         -4.4200978114        0.0514367021        1.0891656649
 O         -5.1295795968        1.0804054729        1.8097678372
 O         -3.6462059789       -0.8626423488        1.8990953816
 C         -5.5571456370       -0.8409018341        0.0470961053
 C         -6.6838271408       -0.1924145741       -0.4217407836
 C         -7.5528744174       -0.8783277973       -1.2552195989
 C         -7.2819938897       -2.1929960541       -1.6043672251
 C         -6.1473922759       -2.8307462799       -1.1252709013
 C         -5.2731079237       -2.1500599298       -0.2924710408
 H         -4.3828686743       -2.6082717573        0.1090231478
 H         -5.9399537059       -3.8534379767       -1.3965351048
 H         -7.9601608715       -2.7259586659       -2.2519552818
 H         -8.4369895962       -0.3871671888       -1.6283936868
 H         -6.8562489920        0.8261347132       -0.1158596761
 H         -3.3180416548        0.1773802629       -0.8675501552
 H         -3.0263123796        2.0921397307        2.1824420026
 H         -0.8887544047        3.1345458169        2.8711366504
 H          1.0906588490        2.9771811669        1.4058930567
 H          1.8758643306        2.7154213189       -0.8794588451
 C          1.0299408524        1.5710305906       -2.4447451022
 C          2.1017736672        1.0833856908       -3.3720275692
 C          0.9076878770        0.2242438603       -3.0897078033
 H          0.1727404024        0.1006438283       -3.8721098962
 H          1.0331039740       -0.6483890024       -2.4683962002
 H          2.1911198422        1.5412864709       -4.3455027649
 H          3.0474287101        0.8026595238       -2.9315061696
 H          0.3785846548        2.3511402137       -2.8274892892
