  62
        -98.95211779
 C          2.3599774427        0.3293213844        0.0409065167
 C          1.5153903475       -0.2371198842       -0.9416655295
 C          1.5115971088       -1.7031740819       -1.0217980081
 C          2.2875132795       -2.4089338926       -0.1793725514
 C          2.3944109852       -3.9062432567       -0.1594873428
 C          1.4018666758       -4.5415032204        0.8223062915
 C         -0.0349931139       -4.0438473094        0.6646916110
 H         -0.6521547423       -4.6071596309        1.3690597784
 H         -0.0937121162       -2.9953740521        0.9663142322
 C         -0.6113035684       -4.1927129439       -0.7501994774
 H         -0.0302152306       -4.9227509364       -1.3158390825
 H         -1.6300514147       -4.5780555066       -0.6696575153
 C         -0.6931379853       -2.8804119929       -1.5324470279
 H         -1.3535652442       -3.0330074957       -2.3905936853
 H         -1.1478789895       -2.1173591967       -0.8955849320
 C          0.6385888848       -2.3376432165       -2.0675431758
 H          1.1766684372       -3.1321736456       -2.5897125447
 H          0.4115971206       -1.5455127695       -2.7870616471
 H          1.7290978882       -4.3195879186        1.8408648820
 H          1.4302528681       -5.6246238383        0.6849069625
 H          2.2184386756       -4.2867472048       -1.1640833173
 H          3.4090125266       -4.1697230200        0.1459000510
 O          3.0685127470       -1.8308266469        0.7698128660
 C          3.1105993478       -0.4538848321        0.9152238520
 O          3.8494562153       -0.0539883557        1.8397245856
 H          0.4395887626        0.8641840114        1.6471750013
 C          0.1473640649        1.7709845593        1.1376591205
 C          1.0616302883        2.4288188791        0.3251226359
 C          0.6629777525        3.6017159553       -0.3045751942
 C         -0.6262473670        4.0802837154       -0.1462641828
 C         -1.5488352850        3.3911576074        0.6194391203
 C         -1.1560488867        2.2227960194        1.2618851309
 N         -2.0609871106        1.4696765836        2.0390889303
 S         -2.3895111910       -0.0938613827        1.5294926217
 O         -3.3631025094       -0.5977839079        2.4747616139
 O         -1.1646540079       -0.8405708149        1.4165289744
 C         -3.1720268516        0.1093456652       -0.0615284286
 C         -4.5486477504        0.0076013047       -0.1314428946
 C         -5.1785247754        0.2188986347       -1.3466826161
 C         -4.4243600500        0.5366130356       -2.4665075559
 C         -3.0451380118        0.6394405874       -2.3778549552
 C         -2.4057768623        0.4263472430       -1.1654716116
 H         -1.3316129374        0.4969343081       -1.0853411499
 H         -2.4502792466        0.8853909507       -3.2427990016
 H         -4.9129909846        0.7039641198       -3.4134822243
 H         -6.2512602474        0.1368040348       -1.4162723289
 H         -5.0910529081       -0.2445888335        0.7655323601
 H         -2.9343329439        1.9460662578        2.2200014614
 H         -2.5626159432        3.7487107186        0.7202776268
 H         -0.9217015917        4.9922324196       -0.6421546021
 H          1.3611516635        4.1387652093       -0.9255814052
 C          2.4433242050        1.8388140413        0.1816346346
 H          3.0003268976        2.0297187035        1.1111052920
 C          3.2223224736        2.4189249190       -0.9825334715
 C          4.0579724385        3.6495465915       -0.8011868579
 C          4.7168084486        2.3147756979       -0.9727407698
 H          5.2258377631        2.1030208238       -1.9010320927
 H          5.1725079186        1.8501848232       -0.1100862560
 H          4.1198581060        4.3562010498       -1.6150663414
 H          4.0794554879        4.1003511938        0.1794930899
 H          2.7177122610        2.2752037166       -1.9312705407
 O          0.8107928490        0.4520802877       -1.7263052093
