  62
        -98.93490360
 C          1.7115224361       -0.9152432204       -0.3474124181
 C          2.1237731663        0.4384714009       -0.3510836166
 C          3.5740642138        0.6784901069       -0.5021506207
 C          4.4021499454       -0.3659368066       -0.6694838097
 C          5.9010137255       -0.3408126268       -0.7869190440
 C          6.5575054069       -0.5532637394        0.5876210697
 C          6.7631512793        0.7201543933        1.4071189478
 H          7.1073148291        0.4168028466        2.3985827505
 H          7.5582007858        1.3148610775        0.9524530847
 C          5.5233056406        1.6040913155        1.5666353416
 H          5.6786227449        2.2448820626        2.4368845342
 H          4.6512956910        0.9820970303        1.7771249237
 C          5.2512169756        2.4892718313        0.3411101688
 H          6.1266779325        2.4765134964       -0.3079887501
 H          5.1216743755        3.5241046958        0.6650332779
 C          4.0005970911        2.1208903425       -0.4716419328
 H          3.1345430303        2.6574236935       -0.0707190413
 H          4.1294448683        2.4682674472       -1.5022952159
 H          5.9379383173       -1.2568307107        1.1497384997
 H          7.5327318646       -1.0220841872        0.4416618006
 H          6.1758196963       -1.1749873608       -1.4358647516
 H          6.2367304577        0.5848722582       -1.2447406607
 O          3.9566965519       -1.6518828717       -0.7087469685
 C          2.6183936593       -1.9586511553       -0.5522943960
 O          2.3602625825       -3.1763702942       -0.6242948712
 O          1.3374822670        1.4134047684       -0.2304138141
 C          0.2550593886       -1.3153520663       -0.1828286900
 C         -0.6328593849       -0.4400011141       -1.0312672641
 C         -0.5093377701       -0.5080379609       -2.4169596185
 C         -1.2984807250        0.2750750549       -3.2359990926
 C         -2.2455820747        1.1254974807       -2.6921384571
 C         -2.3753613661        1.2016904632       -1.3112067081
 C         -1.5716287547        0.4225882640       -0.4894386773
 H         -1.6587759027        0.5391300778        0.5770906501
 N         -3.3237702712        2.0531530252       -0.7292755388
 S         -4.0944795473        1.6176403309        0.6829148699
 O         -5.3459942529        2.3450665260        0.6470872159
 O         -3.2576505633        1.8736156880        1.8276280195
 C         -4.4056904726       -0.1342399793        0.5360325417
 C         -5.0840100497       -0.5942356349       -0.5753283187
 C         -5.3196226445       -1.9534070569       -0.7020250803
 C         -4.8782409021       -2.8260804885        0.2808633414
 C         -4.2076694666       -2.3482593923        1.3957876360
 C         -3.9671923944       -0.9895538328        1.5258054874
 H         -3.4445069009       -0.5756549329        2.3735662543
 H         -3.8675981598       -3.0279457987        2.1611308990
 H         -5.0586375417       -3.8845382508        0.1789739263
 H         -5.8437955376       -2.3284492908       -1.5661569684
 H         -5.4216789022        0.1087902004       -1.3190650569
 H         -3.9369086305        2.5268842546       -1.3750091651
 H         -2.8658443038        1.7371084618       -3.3294517969
 H         -1.1830343536        0.2188542170       -4.3079517320
 H          0.2281465335       -1.1759157105       -2.8416785582
 H          0.1982450061       -2.3396433877       -0.5871695564
 C         -0.2086681223       -1.3962377032        1.2637586982
 C          0.7363008305       -1.7725195555        2.3643255904
 C          0.1866748732       -0.3808937010        2.2914456045
 H         -0.5491553036       -0.0726262590        3.0206502031
 H          0.8403475024        0.4183717244        1.9794206890
 H          0.3807808997       -2.4283716917        3.1446223103
 H          1.7732202648       -1.9277039999        2.1032269435
 H         -1.2159155695       -1.7953223117        1.3374360337
