  62
        -98.94611176
 C         -1.6130636219       -1.3091083323        0.4053726577
 C         -1.5405911465       -0.2768857640       -0.5610542217
 C         -2.4128536006        0.8817039354       -0.3221844614
 C         -3.1747846886        0.9347104263        0.7851308666
 C         -4.0844430969        2.0648571044        1.1836988034
 C         -5.4759854625        2.0019659718        0.5392189656
 C         -5.5176142948        2.3410241636       -0.9513687482
 H         -6.5677563412        2.4682686210       -1.2217591881
 H         -5.0209079792        3.2970357489       -1.1202058511
 C         -4.9006026637        1.2697250407       -1.8614303290
 H         -4.8159286970        0.3294393824       -1.3117119225
 H         -5.5651013608        1.0850565578       -2.7085412712
 C         -3.5305929302        1.6349081329       -2.4331935104
 H         -3.6280923762        2.4987659383       -3.0946133809
 H         -3.1741764863        0.7925771259       -3.0317693581
 C         -2.4655179873        1.9495499399       -1.3741982874
 H         -1.4921944208        1.9832589010       -1.8704753136
 H         -2.6628244542        2.9226085714       -0.9242561104
 H         -5.8900659566        1.0034774330        0.6973107771
 H         -6.1134008702        2.7131875609        1.0694611073
 H         -4.2044628787        1.9990626840        2.2671305696
 H         -3.6149256464        3.0190054847        0.9428000553
 O         -3.1871446498       -0.0612754840        1.7093856138
 C         -2.4290317157       -1.2054720874        1.5365196865
 O         -2.5604673106       -2.0477873691        2.4458959661
 O         -0.7960616089       -0.3001668327       -1.5763745538
 C         -0.7691141307       -2.5713559942        0.2971094647
 C          0.6641192331       -2.1770553720        0.5550785998
 C          1.1373196680       -2.1120912037        1.8625561738
 C          2.4132786408       -1.6509359354        2.1302777012
 C          3.2329423665       -1.2147023246        1.1033441983
 C          2.7612516718       -1.2619598014       -0.2014093733
 C          1.4984032558       -1.7690099485       -0.4735233890
 H          1.1457308212       -1.7903644323       -1.4919558561
 N          3.5526616137       -0.7444398355       -1.2438447806
 S          4.2045472128        0.7753768172       -0.9772250534
 O          4.2572388469        1.4093429376       -2.2766520606
 O          5.4744954326        0.6345917969       -0.3065443436
 C          3.0687229432        1.6398521630        0.1005344187
 C          1.7221368363        1.6695313390       -0.2047818219
 C          0.8591895959        2.3383037509        0.6487394513
 C          1.3508134085        2.9719796436        1.7790752781
 C          2.7064847892        2.9419261464        2.0660079731
 C          3.5734177179        2.2667057714        1.2224416226
 H          4.6324240844        2.2055636283        1.4143832713
 H          3.0880492865        3.4356327770        2.9451687574
 H          0.6708077392        3.4879694412        2.4384761998
 H         -0.1969910951        2.3461503582        0.4285355170
 H          1.3427524152        1.1655285718       -1.0801138243
 H          3.0918005440       -0.7760071164       -2.1424888353
 H          4.2214927759       -0.8279454045        1.2928516057
 H          2.7690806956       -1.6150142165        3.1485392484
 H          0.4830765225       -2.4116248079        2.6692541020
 H         -1.0979095711       -3.2251151093        1.1150170636
 C         -0.9810404073       -3.2926378246       -1.0174156579
 C         -0.4954383418       -4.7026041862       -1.1622386827
 C         -1.9649636356       -4.4201571682       -1.0826961606
 H         -2.5615199494       -4.5319900122       -1.9758163108
 H         -2.4878018146       -4.6819410048       -0.1742693637
 H         -0.0813030567       -5.0123429368       -2.1095732084
 H         -0.0193071526       -5.1551447853       -0.3055368306
 H         -0.9202275778       -2.6458418459       -1.8832808404
