  62
        -98.94482671
 C          2.0116412700        1.3719548121        0.2805781020
 C          2.6290954174        0.7365400431       -0.8241114554
 C          3.7752940608       -0.1232762175       -0.5020453870
 C          4.1833294416       -0.2481709595        0.7739383696
 C          5.3506823667       -1.0670715373        1.2545674228
 C          5.0228952740       -2.5495626865        1.4796857280
 C          4.8178186066       -3.3712929987        0.2063248158
 H          5.6694681560       -3.2270152578       -0.4590733630
 H          4.8090487259       -4.4226021356        0.5009355506
 C          3.5162857144       -3.0591136238       -0.5459653363
 H          3.0222534655       -3.9926765158       -0.8250680665
 H          2.8317535516       -2.5234964301        0.1162670644
 C          3.7029218278       -2.2446835173       -1.8263461696
 H          2.7159228160       -2.0490926168       -2.2540749846
 H          4.2743809684       -2.8286464899       -2.5511563486
 C          4.4062884563       -0.8966097671       -1.6199318777
 H          5.4678443230       -1.0509925990       -1.4280968946
 H          4.2955829226       -0.3093711424       -2.5346719012
 H          5.8540752950       -2.9861804977        2.0381203696
 H          4.1299910206       -2.6194232817        2.1055424365
 H          6.1757926751       -0.9791284136        0.5474695932
 H          5.6618600868       -0.6352774864        2.2082528896
 O          3.5682220207        0.3897093098        1.8057563890
 C          2.4555136584        1.1881653550        1.5891637360
 O          1.9559018192        1.6671335839        2.6283027361
 H         -0.0411399366       -0.1684540131        0.7215650047
 C         -0.6051104433        0.2173173174       -0.1194178326
 C         -0.2999299173        1.4798802795       -0.6141001934
 C         -1.0444996487        1.9692957859       -1.6788206042
 C         -2.0401343225        1.1967702353       -2.2529554926
 C         -2.3219710242       -0.0691724428       -1.7753442378
 C         -1.5984847334       -0.5593019721       -0.6947608887
 N         -1.8914606900       -1.8360064019       -0.1864623517
 S         -3.5010049493       -2.2463229085        0.0181521488
 O         -3.5112786885       -3.2114715560        1.0951832562
 O         -4.0495480704       -2.6993412763       -1.2357556825
 C         -4.3116495533       -0.7376921178        0.5192808659
 C         -3.8757138742       -0.1167471084        1.6731349276
 C         -4.4723128634        1.0716296387        2.0611736987
 C         -5.4901318071        1.6161768343        1.2928373751
 C         -5.9207563821        0.9776068408        0.1404911072
 C         -5.3257615861       -0.2102385725       -0.2537168589
 H         -5.6267353614       -0.7380627188       -1.1439363390
 H         -6.7138334483        1.4020440743       -0.4536229733
 H         -5.9495191454        2.5434237657        1.5967019489
 H         -4.1374598104        1.5688726935        2.9575894412
 H         -3.0847670198       -0.5665256569        2.2522726374
 H         -1.3401991369       -2.0971639681        0.6171696802
 H         -3.0793898706       -0.6904335733       -2.2250247436
 H         -2.6014475712        1.5850324019       -3.0888304857
 H         -0.8384576424        2.9523870236       -2.0682652519
 C          0.8025429258        2.2622018300        0.0588260802
 H          0.4510505884        2.5535059840        1.0596157539
 C          1.2074287620        3.5107070572       -0.6970991149
 C          0.4720404651        4.7981849198       -0.4809595297
 C          1.8603533640        4.6288255089        0.0566874986
 H          2.6688111080        5.1665484972       -0.4154431748
 H          1.9874131252        4.4994224874        1.1219791183
 H         -0.3459560623        4.7952752926        0.2232529536
 H          0.3286316370        5.4580553057       -1.3232242989
 H          1.5819236836        3.2916813849       -1.6903275614
 O          2.2464503834        0.8771936804       -2.0138593202
