  62
        -98.93527866
 C         -2.2904615853       -0.8082768569       -0.0357318587
 C         -2.4268182182        0.2282160037        0.9128554433
 C         -2.4400395531        1.6074830028        0.3944396293
 C         -2.2978926398        1.8064452564       -0.9284339350
 C         -2.2648316313        3.1102939837       -1.6846544865
 C         -1.3657492327        4.2084614809       -1.0951784565
 C         -2.1497723633        5.3882795919       -0.5182850871
 H         -1.5018839384        6.2674852198       -0.5111425971
 H         -2.9880535805        5.6049589381       -1.1835793008
 C         -2.6717990997        5.1883220950        0.9032946425
 H         -1.8332480146        5.2184272278        1.6025346349
 H         -3.3226501632        6.0338162133        1.1381674941
 C         -3.4485423704        3.8916972875        1.1419549413
 H         -4.0990531449        3.6719698262        0.2966256583
 H         -4.0933738840        4.0454870108        2.0098538526
 C         -2.5514994799        2.6818550591        1.4421276485
 H         -1.5404969660        3.0168177692        1.6973568277
 H         -2.9232831629        2.1608137995        2.3305473119
 H         -0.7285786181        4.5848475322       -1.8971368880
 H         -0.7070581974        3.7774311229       -0.3413120731
 H         -3.2868524306        3.4821796901       -1.7893966844
 H         -1.9208957955        2.8469334461       -2.6871702866
 O         -2.1808596000        0.7736718478       -1.8111198436
 C         -2.1431603166       -0.5451242450       -1.3964788348
 O         -1.9877452545       -1.3706517948       -2.3170047213
 O         -2.5328344237        0.0109436529        2.1531663052
 C         -2.1887053913       -2.2422699727        0.4452718808
 C         -0.8332805247       -2.8155128443        0.1028852626
 C         -0.6369758870       -4.1543826521       -0.2115634306
 C          0.6328689426       -4.6266648301       -0.4973347169
 C          1.7262761808       -3.7814417618       -0.4843902173
 C          1.5394572157       -2.4369563726       -0.1767669601
 C          0.2721272707       -1.9750087322        0.1336750529
 H          0.1431782909       -0.9340228016        0.3922807340
 N          2.6201640342       -1.5418539204       -0.2185333293
 S          2.5131795103        0.0029191697        0.4312456360
 O          2.2116248863       -0.0554621909        1.8460513744
 O          1.6284023509        0.7991601485       -0.3822813480
 C          4.1978772196        0.5361947917        0.1932123716
 C          5.0926374313        0.4594291845        1.2436952808
 C          6.4077229387        0.8446258614        1.0344761587
 C          6.8042911497        1.2953202565       -0.2155312470
 C          5.8944104956        1.3692614801       -1.2599604303
 C          4.5780245240        0.9867190173       -1.0568807085
 H          3.8330850901        1.0345978731       -1.8342985586
 H          6.2048166257        1.7233697146       -2.2297279983
 H          7.8280988308        1.5936591863       -0.3765549127
 H          7.1160321177        0.7917179981        1.8454284182
 H          4.7359874329        0.1111358015        2.1996413744
 H          3.5198260729       -1.9727518739       -0.0623081502
 H          2.7128076978       -4.1496171349       -0.7193832222
 H          0.7717374338       -5.6698157388       -0.7375422160
 H         -1.4787801530       -4.8270394617       -0.2345309007
 H         -2.2662368805       -2.1891350928        1.5427381199
 C         -3.3384843091       -3.0737726463       -0.0861998147
 C         -3.9160267085       -4.1876798820        0.7337406670
 C         -4.6908126660       -2.9200871034        0.5409954891
 H         -5.5603983569       -2.9348061969       -0.0985130335
 H         -4.7729647616       -2.2374172931        1.3743890508
 H         -4.2584585315       -5.0767833188        0.2260486434
 H         -3.4830035707       -4.3703169030        1.7057484875
 H         -3.2964566270       -3.1946781616       -1.1627208034
