  62
        -98.94062347
 C         -1.9237604944       -0.8417163161        0.7227086897
 C         -1.9072857670       -0.1964784540       -0.5389283476
 C         -2.2160501127        1.2397697009       -0.5241410845
 C         -2.3963642061        1.8775718964        0.6449846553
 C         -2.6844997872        3.3439268749        0.8221035449
 C         -4.1667697228        3.7130904890        0.6691296007
 C         -4.7060043690        3.6652093127       -0.7611014754
 H         -5.6826685852        4.1529466212       -0.7508696834
 H         -4.0555225177        4.2500984788       -1.4119657746
 C         -4.8676765927        2.2488699060       -1.3304099342
 H         -4.8524274453        1.5243049656       -0.5129978349
 H         -5.8409153622        2.1609731770       -1.8182512065
 C         -3.8078450070        1.8547151345       -2.3593073089
 H         -3.8975810384        2.4928337660       -3.2410521006
 H         -3.9969316939        0.8237445712       -2.6688950196
 C         -2.3653046499        1.9371288957       -1.8422622536
 H         -2.0518593182        2.9776304433       -1.7582821051
 H         -1.7093084043        1.4327854517       -2.5561729969
 H         -4.2884062924        4.7307745344        1.0471138446
 H         -4.7579348562        3.0495843843        1.3045559770
 H         -2.3661152533        3.6015759994        1.8347478494
 H         -2.0867436166        3.9199121055        0.1148236654
 O         -2.3144532865        1.2397058260        1.8444085711
 C         -2.0874220475       -0.1255206087        1.9097970114
 O         -2.0500590344       -0.5796035932        3.0727521403
 O         -1.6600917478       -0.7763163006       -1.6276011498
 C         -1.6221894332       -2.3249496451        0.8615783371
 C         -0.3967848763       -2.6529844964        0.0441352475
 C         -0.3515269766       -3.6299449891       -0.9405672402
 C          0.8092447616       -3.8326302193       -1.6672491464
 C          1.9352421864       -3.0649815614       -1.4372428436
 C          1.9028035970       -2.0922202748       -0.4431568316
 C          0.7495610205       -1.9094365095        0.2988476276
 H          0.7287575264       -1.1462207906        1.0651613855
 N          3.0385846847       -1.3096554648       -0.1651439040
 S          2.8174342637        0.2733573394        0.3759383054
 O          2.5462875263        0.2447815406        1.7928319946
 O          1.8549073274        0.9688683594       -0.4489662063
 C          4.4560697656        0.9218319935        0.0991733846
 C          5.4480751626        0.6212389831        1.0136435371
 C          6.7322079575        1.0905708130        0.7877361303
 C          7.0020528190        1.8481964476       -0.3424613789
 C          5.9960182842        2.1438715144       -1.2498813953
 C          4.7096466680        1.6757717947       -1.0308272891
 H          3.8936388389        1.8852280331       -1.7039272986
 H          6.2074374446        2.7358555498       -2.1257040502
 H          8.0021508334        2.2127324763       -0.5157994832
 H          7.5159597985        0.8647858287        1.4925790283
 H          5.1873469243        0.0375963381        1.8810368944
 H          3.7291925454       -1.3515539242       -0.9026572498
 H          2.8310267969       -3.2098110399       -2.0218430236
 H          0.8301017850       -4.5878622764       -2.4383745104
 H         -1.2318768646       -4.2106007342       -1.1617654358
 H         -1.3591424824       -2.4606845763        1.9245932548
 C         -2.8068979662       -3.2385485108        0.5868360042
 C         -4.2116062159       -2.7573586809        0.7931902026
 C         -3.7139386418       -3.0454822527       -0.5895978962
 H         -4.0902469816       -3.9234089200       -1.0941535535
 H         -3.5054780513       -2.2175336373       -1.2477503042
 H         -4.9256469867       -3.4340427602        1.2381094013
 H         -4.3461915749       -1.7258214520        1.0861145974
 H         -2.6041556253       -4.2628733445        0.8842737250
