  62
        -98.93685955
 C         -2.2011858431       -1.1561688630       -0.1007581519
 C         -3.2377966460       -0.8554216493        0.8158685236
 C         -4.1622095174        0.2322410624        0.4488461798
 C         -3.9488771687        0.9084565994       -0.6941118845
 C         -4.7417871319        2.0488858092       -1.2808116627
 C         -5.1819833305        3.1547963625       -0.3092010975
 C         -6.6873698715        3.1624008337       -0.0373511961
 H         -6.9800179473        4.1668783680        0.2763200513
 H         -7.2099500091        2.9481079144       -0.9719425839
 C         -7.1578524457        2.1867707218        1.0399554477
 H         -6.8361630983        2.5477931960        2.0191991476
 H         -8.2503313534        2.1911640537        1.0348301288
 C         -6.6725710595        0.7453017089        0.8739655469
 H         -6.7118312362        0.4472971097       -0.1731071438
 H         -7.3634888622        0.0963374880        1.4161353662
 C         -5.2644326055        0.5013369222        1.4369301686
 H         -4.9675091563        1.3380105324        2.0759195669
 H         -5.2751162349       -0.3807487855        2.0846189008
 H         -4.6272990397        3.0701595597        0.6240677198
 H         -4.9154172031        4.1141754154       -0.7558034441
 H         -4.0977077544        2.4706593049       -2.0559482843
 H         -5.6147752329        1.6361337007       -1.7927029068
 O         -2.9221170220        0.6006147988       -1.5368950850
 C         -2.0311938236       -0.4264402061       -1.2761651280
 O         -1.1647988406       -0.5772934328       -2.1601439806
 O         -3.3928584264       -1.4791027249        1.8998772256
 C         -1.2382842281       -2.2766818997        0.2589017179
 C          0.0895317791       -1.6584762160        0.6203841262
 C          0.3138404756       -1.2304698142        1.9258592633
 C          1.4938556120       -0.5966424689        2.2674693706
 C          2.4699068322       -0.3653667429        1.3135252969
 C          2.2469167207       -0.7711432250        0.0051185545
 C          1.0724044324       -1.4310979686       -0.3305862923
 H          0.9057609648       -1.7268627982       -1.3543420750
 N          3.2231088363       -0.5213065699       -0.9765122910
 S          3.8315140589        1.0410111204       -1.0872771441
 O          2.8805248985        2.0237067834       -0.6203674448
 O          4.2829195766        1.1778099483       -2.4551771954
 C          5.2553041452        1.0108506176       -0.0159695810
 C          6.2151408018        0.0423065894       -0.2364709712
 C          7.3329697231        0.0092390920        0.5816784712
 C          7.4736940945        0.9419994820        1.5985415542
 C          6.5035295413        1.9107253647        1.8044642229
 C          5.3820672229        1.9483903136        0.9901867356
 H          4.5991723445        2.6794737043        1.1162342078
 H          6.6144405032        2.6357488215        2.5947619703
 H          8.3446257175        0.9141670356        2.2341378156
 H          8.0895453613       -0.7425106895        0.4243984577
 H          6.0690987944       -0.6607866485       -1.0392549097
 H          2.9546563773       -0.8540362037       -1.8921295573
 H          3.3872330813        0.1393013590        1.5692361969
 H          1.6555777738       -0.2751552425        3.2851203942
 H         -0.4584643375       -1.3871147678        2.6657819128
 H         -1.6564700307       -2.7364846983        1.1640908850
 C         -1.1459643161       -3.3311729730       -0.8239166247
 C         -0.5173707219       -4.6530749115       -0.5022650677
 C         -1.9964756842       -4.5604183614       -0.7226663898
 H         -2.4111558119       -4.9742682134       -1.6296371869
 H         -2.6480702209       -4.6480602302        0.1342550151
 H          0.0861922493       -5.1343713564       -1.2563819977
 H         -0.1635832717       -4.8016603408        0.5065972386
 H         -0.9893936433       -2.9222084418       -1.8143459654
