  62
        -98.94614264
 C          1.4087545896        1.1424494446       -0.0665709608
 C          2.3089449660        0.6813682527        0.9308057371
 C          3.0385043380       -0.5538445110        0.6275036719
 C          2.8167934214       -1.1880700930       -0.5374735578
 C          3.4584671862       -2.4733470564       -0.9854761974
 C          4.8412683895       -2.2895636523       -1.6257726475
 C          5.9673003473       -1.9367062233       -0.6531489901
 H          6.9075201311       -2.0566978649       -1.1951232628
 H          5.9731901429       -2.6523902615        0.1695367327
 C          5.8984384078       -0.5080108561       -0.0955844644
 H          5.2344023906        0.0949893780       -0.7192495962
 H          6.8883874010       -0.0491598740       -0.1473944888
 C          5.4319266560       -0.4156828074        1.3573243783
 H          5.3851489022        0.6402455471        1.6353760103
 H          6.1618363216       -0.9025118947        2.0078861307
 C          4.0536786737       -1.0370383608        1.6184652804
 H          3.7210606402       -0.7282218192        2.6122505271
 H          4.1219301677       -2.1243293576        1.5934706621
 H          4.7703949544       -1.5184217905       -2.3964641702
 H          5.0984778565       -3.2292750124       -2.1200595023
 H          2.7925889133       -2.9131834002       -1.7315653206
 H          3.5367620535       -3.1590623858       -0.1412521992
 O          1.9331424220       -0.7260416222       -1.4601072537
 C          1.2151956157        0.4452238281       -1.2587979071
 O          0.4600614447        0.7273086141       -2.2106108361
 O          2.4919913282        1.2768050573        2.0243069425
 C          0.6282386968        2.4111617846        0.2437496267
 C         -0.7778614072        2.0199330742        0.6270283801
 C         -1.1392223817        1.9109472039        1.9658088387
 C         -2.3990170579        1.4644610826        2.3242633127
 C         -3.3158508916        1.0941286616        1.3563549995
 C         -2.9571785395        1.1873303024        0.0181075597
 C         -1.7080450212        1.6698300681       -0.3409959637
 H         -1.4364731946        1.7182929385       -1.3839437887
 N         -3.8532100480        0.7326490230       -0.9713592392
 S         -4.3905308791       -0.8407845998       -0.7503068676
 O         -4.6021323864       -1.3753004691       -2.0772976191
 O         -5.5499144120       -0.8276646193        0.1075788588
 C         -3.0541525042       -1.6937837933        0.0743770386
 C         -1.8187790938       -1.7431854167       -0.5408045501
 C         -0.7721284550       -2.3748110253        0.1106720928
 C         -0.9733895391       -2.9414018762        1.3595394247
 C         -2.2209040660       -2.8881695758        1.9612297226
 C         -3.2717854124       -2.2572750732        1.3153444607
 H         -4.2558635357       -2.1866479695        1.7493430199
 H         -2.3749736195       -3.3305109648        2.9321459456
 H         -0.1510096293       -3.4243013519        1.8633356001
 H          0.1987869092       -2.4101910663       -0.3577546954
 H         -1.6744562268       -1.2883149879       -1.5086915877
 H         -3.4890305643        0.8444755184       -1.9074872200
 H         -4.2937571999        0.7197059419        1.6129974678
 H         -2.6659509290        1.3908571003        3.3672264629
 H         -0.4134747200        2.1607685382        2.7260400971
 H          1.1140889925        2.8372795562        1.1312379087
 C          0.6778403330        3.4353833918       -0.8706855477
 C          0.3031103973        4.8542858061       -0.5676103139
 C          1.7330420212        4.4985273247       -0.8400955906
 H          2.1751512592        4.8118570140       -1.7740902026
 H          2.4248625966        4.4942004250       -0.0104804994
 H         -0.2393633896        5.4150644041       -1.3131959520
 H          0.0243702965        5.0896250434        0.4483854463
 H          0.4087025192        3.0396749490       -1.8413511060
