  62
        -98.93815373
 C         -1.8728805603       -0.0382332267       -0.0321240714
 C         -2.8738151420       -0.8947158818        0.4819962130
 C         -4.2002013316       -0.2946802674        0.7003886433
 C         -4.3893942613        1.0048905991        0.4137033485
 C         -5.6361554836        1.8344072910        0.5960461416
 C         -6.9772635150        1.1967876440        0.2089857175
 C         -6.9152448305        0.2267488749       -0.9798627341
 H         -7.6807591887        0.5060673296       -1.7062559539
 H         -5.9481026722        0.3079258714       -1.4790310878
 C         -7.1600904496       -1.2290213010       -0.5756872647
 H         -7.4651798408       -1.7925591971       -1.4607401921
 H         -7.9899894234       -1.2607550843        0.1336558162
 C         -5.9572094656       -1.9520007761        0.0287871991
 H         -5.2036087156       -2.1261898085       -0.7439584245
 H         -6.2931621615       -2.9324287268        0.3748995238
 C         -5.2677140072       -1.2274626887        1.1963610377
 H         -5.9914866015       -0.7144877966        1.8247981625
 H         -4.7528473424       -1.9796840734        1.8001938877
 H         -7.3963491904        0.6773164801        1.0695632240
 H         -7.6590541316        2.0162719002       -0.0248944813
 H         -5.6808030857        2.1542304253        1.6413166412
 H         -5.4698431264        2.7308011016       -0.0063033836
 O         -3.3932737922        1.7950566611       -0.0798483198
 C         -2.1190621201        1.3034630288       -0.3171503262
 O         -1.3197437763        2.1445645676       -0.7700930954
 H          1.8871368073        0.5868579114       -1.1101971547
 C          1.6835053340        0.7076754289       -0.0598688497
 C          0.5370408492        0.1770455035        0.5089497462
 C          0.3186311600        0.3706294058        1.8716340413
 C          1.2092919025        1.0979383740        2.6350974948
 C          2.3481008906        1.6360854608        2.0604649651
 C          2.5827041176        1.4395706779        0.7061717219
 N          3.7283277170        1.9764369278        0.0953576537
 S          4.6430792578        1.0162126053       -0.9230166921
 O          5.9310048690        1.6721258070       -0.9813865401
 O          3.9687151000        0.8285482916       -2.1814492855
 C          4.7821155279       -0.5326855002       -0.0503516367
 C          5.6188044165       -0.5875008078        1.0475633506
 C          5.6857941209       -1.7600667288        1.7816468048
 C          4.9127286987       -2.8503773430        1.4116546664
 C          4.0809360155       -2.7801518668        0.3051870353
 C          4.0117459199       -1.6103199863       -0.4350296932
 H          3.3793784100       -1.5164890766       -1.3022470691
 H          3.4828937488       -3.6301622450        0.0173709721
 H          4.9601196418       -3.7614849148        1.9869927167
 H          6.3358509264       -1.8203128245        2.6395915001
 H          6.2114542967        0.2778047023        1.2965790836
 H          4.3214965617        2.5044851372        0.7188055211
 H          3.0421263478        2.2126834653        2.6528574897
 H          1.0194015311        1.2467763626        3.6873367124
 H         -0.5718195531       -0.0482969044        2.3202907991
 C         -0.4849276973       -0.5994728806       -0.2827200628
 H         -0.5140771585       -1.6284388179        0.1060840200
 C         -0.1999368169       -0.6488687652       -1.7685705200
 C          0.6856060793       -1.7167322265       -2.3345207521
 C         -0.7912006470       -1.7569937323       -2.5857480496
 H         -1.1565167063       -1.5291368936       -3.5759440422
 H         -1.3772672284       -2.4991178472       -2.0633464797
 H          1.0920527711       -2.4412947136       -1.6450706333
 H          1.3435048494       -1.4606341675       -3.1521616149
 H         -0.1667311705        0.3362601147       -2.2215090050
 O         -2.6647096788       -2.1053330582        0.7623820986
