  62
        -98.94229700
 C         -1.5073127418       -1.3260072504        0.2946269784
 C         -2.1913382015       -0.8716434096       -0.8587835014
 C         -3.2166960309        0.1576531109       -0.6273181611
 C         -3.4528357008        0.5862249005        0.6262499390
 C         -4.4222143003        1.6715369609        0.9939462893
 C         -3.7324792996        3.0429350005        1.0149202199
 C         -2.8997251993        3.3315283805       -0.2343224699
 H         -2.4797445688        4.3337015303       -0.1233527594
 H         -2.0594721997        2.6338199801       -0.2718447900
 C         -3.6843756992        3.2486517415       -1.5514177400
 H         -3.4218463087        4.1093914816       -2.1702513496
 H         -4.7541972492        3.3103648820       -1.3488023201
 C         -3.3990829598        1.9977499916       -2.3852483304
 H         -3.8383059196        2.1434943023       -3.3757636104
 H         -2.3202483398        1.8850347811       -2.5224216004
 C         -3.9539512705        0.6805021817       -1.8279574410
 H         -5.0180875605        0.7923653922       -1.6105372611
 H         -3.8394556209       -0.0812194680       -2.6048682213
 H         -3.0723516696        3.0859995998        1.8842301100
 H         -4.4965197492        3.8136914408        1.1301200402
 H         -5.2437745502        1.6763740516        0.2805023592
 H         -4.8176512505        1.4582311107        1.9883732592
 O         -2.7864025612        0.1133914897        1.7097933289
 C         -1.7912017617       -0.8424159708        1.5719322786
 O         -1.2417325120       -1.1722459215        2.6404993785
 H          0.3717835090        0.1664802088       -0.2951924508
 C          1.0055375587       -0.5495762213       -0.8049337910
 C          0.7213846480       -1.9040245012       -0.7003222016
 C          1.5581098175       -2.8006960914       -1.3564657918
 C          2.6420646279       -2.3521183217       -2.0909345615
 C          2.9187570486       -1.0000381118       -2.1912591910
 C          2.0845526990       -0.0975705716       -1.5495998607
 N          2.3903676598        1.2872494582       -1.6140141501
 S          3.5732826599        1.7372928972       -0.5113287398
 O          3.6114532907        3.1815926572       -0.5287783092
 O          4.7946545896        1.0563206667       -0.8532300000
 C          2.9463284194        1.1479963869        1.0501072999
 C          2.1001742498        1.9628712271        1.7756741701
 C          1.5025134194        1.4596890269        2.9197807099
 C          1.7460989286        0.1511389666        3.3077701494
 C          2.5982374683       -0.6535929935        2.5677498891
 C          3.2035378087       -0.1554109034        1.4252719794
 H          3.8670497284       -0.7522811035        0.8204527492
 H          2.7799236877       -1.6721840237        2.8706079487
 H          1.2544273983       -0.2477874134        4.1804823892
 H          0.8361986097        2.0803253370        3.4976662400
 H          1.9309997303        2.9730000473        1.4363370405
 H          1.5807868601        1.8732209586       -1.4624458600
 H          3.7687913389       -0.6307786620       -2.7410015607
 H          3.2814756475       -3.0643621018       -2.5895267118
 H          1.3609324570       -3.8581443013       -1.2862113123
 C         -0.4183740324       -2.3719583210        0.1732718681
 H         -0.0184753026       -2.5079325616        1.1898417781
 C         -1.0084934930       -3.6889129905       -0.2958707324
 C         -0.4977236238       -4.9909895209        0.2418970371
 C         -1.8438452636       -4.4841561804        0.6608209772
 H         -2.7263757038       -4.9810080098        0.2867926669
 H         -1.9549121335       -4.0927490107        1.6618901473
 H          0.2994264362       -4.9572079817        0.9692152372
 H         -0.4570394442       -5.8419199607       -0.4214853832
 H         -1.3316757229       -3.6525623499       -1.3297919525
 O         -1.9547582816       -1.2927562793       -2.0211251816
