  62
        -98.93579343
 C          2.4888060342        0.9228275198        0.3882762886
 C          3.0029213296       -0.1096149398        1.2144747114
 C          3.8814482860       -1.0903905058        0.5640308529
 C          4.1158712875       -0.9852902221       -0.7564686613
 C          4.9595023204       -1.9340904427       -1.5568386338
 C          4.1158879923       -3.0748538290       -2.1423470275
 C          3.2047206289       -3.7552207328       -1.1208526349
 H          2.4465679484       -3.0415456832       -0.7899479137
 H          2.6818816260       -4.5623158887       -1.6384373997
 C          3.9362793323       -4.3221393820        0.1039259447
 H          3.5523186914       -5.3237318476        0.3085739947
 H          5.0003189079       -4.4217662192       -0.1133349296
 C          3.7555537959       -3.5056928113        1.3850016133
 H          2.6917812296       -3.3224732327        1.5559504548
 H          4.1232139797       -4.1031600032        2.2234892370
 C          4.4893236239       -2.1593747386        1.4284175716
 H          4.4325729727       -1.7837923555        2.4543769619
 H          5.5413056388       -2.3058719764        1.1745921913
 H          4.7905294759       -3.8129114038       -2.5800235945
 H          3.4914894072       -2.6685390824       -2.9414362330
 H          5.4190235019       -1.3772439515       -2.3752354164
 H          5.7442236140       -2.3380971596       -0.9199215425
 O          3.5643057489       -0.0158166844       -1.5274408904
 C          2.7338147694        0.9600547806       -0.9858261066
 O          2.3008177804        1.7683483982       -1.8259556447
 H         -0.3892338387        0.2417213256        0.8040447127
 C         -0.5990270723        1.1495927370        0.2511860601
 C          0.3395503340        2.1744280871        0.2604925461
 C          0.0616077148        3.3351417456       -0.4483486845
 C         -1.1198366928        3.4538673542       -1.1588589941
 C         -2.0466747807        2.4283516445       -1.1745453973
 C         -1.7830350609        1.2650617439       -0.4627817921
 N         -2.7155160079        0.2097334267       -0.4805946600
 S         -4.3455018794        0.6281870857       -0.3157910669
 O         -4.8463085098        1.0316918784       -1.6058117015
 O         -4.5053901880        1.5901252501        0.7517112479
 C         -5.0632647989       -0.9365938462        0.1435228543
 C         -5.3323720674       -1.1945711650        1.4741956255
 C         -5.8764844828       -2.4210034570        1.8222339617
 C         -6.1371318671       -3.3641767821        0.8395961639
 C         -5.8610869248       -3.0904943969       -0.4920023752
 C         -5.3189977564       -1.8656951325       -0.8472851365
 H         -5.0982382254       -1.6052306668       -1.8692639203
 H         -6.0678224326       -3.8255302734       -1.2530528400
 H         -6.5612521445       -4.3174115282        1.1130654856
 H         -6.0952682346       -2.6351355415        2.8560017624
 H         -5.1214209477       -0.4284030779        2.2030720634
 H         -2.4654044047       -0.5279410936        0.1639395355
 H         -2.9711918765        2.5135821610       -1.7226785125
 H         -1.3214447358        4.3584575264       -1.7129488882
 H          0.7815960896        4.1365576229       -0.4642876010
 C          1.6089434942        1.9700636215        1.0480266282
 H          1.3345782686        1.5204246689        2.0170699897
 C          2.3250509763        3.2733086275        1.3707449263
 C          3.7731105799        3.2770411953        1.7571426039
 C          3.3418764997        3.8924067876        0.4614044997
 H          3.3600765680        4.9692162447        0.3757558147
 H          3.5743942335        3.3793457690       -0.4583740589
 H          4.0902260070        3.9278549375        2.5579820907
 H          4.3003333432        2.3346535578        1.7244590157
 H          1.6808316903        3.9581412885        1.9143005917
 O          2.7394658268       -0.2055903967        2.4434579691
