  62
        -98.94206233
 C         -1.2222323756       -0.9533058260        0.4600000058
 C         -1.7444196160       -0.6321533487       -0.8171746603
 C         -2.5902758246        0.5688113391       -0.8727226704
 C         -2.7963545253        1.2988999980        0.2382916416
 C         -3.6074236781        2.5630491059        0.3305224569
 C         -5.1140818506        2.3261648055        0.5033153964
 C         -5.8406906480        1.8169482363       -0.7421392177
 H         -6.9113105343        1.9025510457       -0.5457520802
 H         -5.6126163066        2.4679577498       -1.5868298026
 C         -5.5221915258        0.3611363599       -1.1108302189
 H         -6.4501204055       -0.1681724314       -1.3390154721
 H         -5.0702024051       -0.1419600978       -0.2529246479
 C         -4.6006551208        0.2004542121       -2.3199807320
 H         -4.4126322999       -0.8659578818       -2.4686582081
 H         -5.0990850294        0.5816905555       -3.2141390402
 C         -3.2449011167        0.9048171059       -2.1786484581
 H         -2.5904508095        0.5519870788       -2.9800296174
 H         -3.3694659653        1.9830936640       -2.2786349346
 H         -5.5623909109        3.2789970909        0.7942719034
 H         -5.2653662227        1.6231226418        1.3256396651
 H         -3.2435471908        3.1028320326        1.2072917915
 H         -3.4338996100        3.1774736585       -0.5534401806
 O         -2.2574332020        0.9685917272        1.4412770775
 C         -1.4869369386       -0.1743048456        1.5875118368
 O         -1.0966545482       -0.3838959963        2.7522323945
 H          0.7355577291       -0.0284061249       -0.6623848861
 C          1.3980168364       -0.8840854747       -0.6512461839
 C          0.9928261814       -2.0590308583       -0.0380842251
 C          1.8773788496       -3.1345349227       -0.0363397164
 C          3.1260106450       -3.0298193350       -0.6218045889
 C          3.5222235646       -1.8534319255       -1.2354145484
 C          2.6418644314       -0.7841165849       -1.2588182394
 N          3.0486321799        0.4327630541       -1.8670278044
 S          3.9690532629        1.3931711849       -0.8470865978
 O          4.1595741008        2.6488298232       -1.5363923707
 O          5.1596492063        0.6645039102       -0.4947853104
 C          2.9363938368        1.6275805918        0.5880061955
 C          2.9749624858        0.6917364730        1.6024028518
 C          2.0920602459        0.8185179117        2.6625003453
 C          1.1858542894        1.8670472728        2.6871065263
 C          1.1577125697        2.7965132955        1.6587924382
 C          2.0364848907        2.6744344661        0.5944243160
 H          2.0463647456        3.3763617575       -0.2247120818
 H          0.4476574794        3.6081334583        1.6799282366
 H          0.4859967806        1.9440497601        3.5039792130
 H          2.0944514929        0.0918574447        3.4585475861
 H          3.6916659524       -0.1118236566        1.5456814528
 H          2.2661548131        0.9791577003       -2.2011522376
 H          4.4956782085       -1.7439318101       -1.6842275018
 H          3.7997639318       -3.8725561178       -0.6011263220
 H          1.5824010893       -4.0585150148        0.4349762630
 C         -0.3429165207       -2.1685265682        0.6626855506
 H         -0.1429429243       -2.2155664477        1.7436276612
 C         -1.0739855351       -3.4364066708        0.2528362043
 C         -0.9544078625       -4.6887853192        1.0662847166
 C         -2.2309208669       -3.9047567662        1.0822519598
 H         -3.0979580805       -4.3073521965        0.5805479450
 H         -2.4661088079       -3.3331009675        1.9688493962
 H         -0.3427782906       -4.6585979152        1.9557172562
 H         -0.9418167457       -5.6373699845        0.5510997070
 H         -1.1637866694       -3.5346213144       -0.8225366856
 O         -1.5103713131       -1.2945374449       -1.8617343816
