  62
        -98.93581167
 C         -2.4952186801       -1.0097922900        0.5822909209
 C         -2.6295043400        0.2799883104        1.1583434100
 C         -3.9259471800        0.9424683504        0.9825015897
 C         -4.9151269301        0.3035939900        0.3322193202
 C         -6.3069881801        0.8259375099        0.0995070999
 C         -6.4339781201        1.7414920391       -1.1255745806
 C         -5.8136359200        3.1299889492       -0.9661187716
 H         -6.1607246701        3.7345618786       -1.8063325020
 H         -6.1908659200        3.5929141298       -0.0537982119
 C         -4.2784682600        3.1399069991       -0.9531246717
 H         -3.9029563501        2.1963750588       -1.3561913711
 H         -3.9130323201        3.9342780187       -1.6078441623
 C         -3.6564073799        3.3687840400        0.4247293781
 H         -3.9146373799        4.3680246002        0.7826795474
 H         -2.5687930399        3.3182613199        0.3229213280
 C         -4.0788951399        2.3453622607        1.4870981688
 H         -3.4232356098        2.4599627212        2.3539381487
 H         -5.1072209699        2.5284415909        1.7985826887
 H         -5.9852189702        1.2385927485       -1.9851476804
 H         -7.4997987801        1.8646302390       -1.3308399707
 H         -6.9439092301       -0.0474612502       -0.0558397494
 H         -6.6520905900        1.3549178705        0.9882760896
 O         -4.7581457202       -0.9411741604       -0.1855793090
 C         -3.5451451102       -1.6192968704       -0.1072057286
 O         -3.5604690503       -2.7246923107       -0.6768545079
 O         -1.7058969299        0.8470920708        1.8043250996
 C         -1.1496519101       -1.6903229599        0.7523707012
 C         -0.2181693702       -1.3687369507       -0.3892695490
 C         -0.6393310503       -1.4491553415       -1.7128546990
 C          0.2352342897       -1.1568722523       -2.7433869192
 C          1.5401932297       -0.7831250821       -2.4761481596
 C          1.9750904998       -0.7094121313       -1.1573368196
 C          1.0923034498       -0.9970784506       -0.1251068194
 H          1.4331663899       -0.9109253899        0.8956129505
 N          3.3122128598       -0.3892734212       -0.8708905799
 S          3.6972693900        0.4644484498        0.5333927095
 O          3.6032671400       -0.4298540595        1.6594410501
 O          2.9232904500        1.6832169198        0.6069250187
 C          5.4098554399        0.8335603395        0.2035491191
 C          6.3444400899       -0.1700290605        0.3769903697
 C          7.6746595199        0.0980055393        0.0965394794
 C          8.0464962399        1.3577390690       -0.3496572314
 C          7.0978727200        2.3553678689       -0.5162463820
 C          5.7651050400        2.0934596692       -0.2390175517
 H          4.9940326200        2.8395812291       -0.3458581122
 H          7.3903370800        3.3345418687       -0.8597563927
 H          9.0827258899        1.5640738988       -0.5662756616
 H          8.4154895299       -0.6741380506        0.2274744799
 H          6.0100328699       -1.1297732402        0.7347293704
 H          3.8005864698       -0.0100086417       -1.6710401502
 H          2.2197804296       -0.5545154127       -3.2829878097
 H         -0.1042209104       -1.2187501229       -3.7664802192
 H         -1.6548411003       -1.7496462516       -1.9230462987
 H         -0.7171504300       -1.2343276193        1.6585738309
 C         -1.2574986702       -3.1877917497        1.0083123422
 C         -0.8362906103       -4.2260950604        0.0167032229
 C         -0.0177380902       -3.9974322396        1.2495236427
 H         -0.0326049002       -4.7433874791        2.0296823432
 H          0.9319725498       -3.4952446197        1.1368242723
 H         -1.4363104903       -5.1201523504       -0.0537493765
 H         -0.4390638203       -3.8941589310       -0.9293818674
 H         -2.1223147501       -3.4298561093        1.6179122824
