  62
        -98.93587837
 C          2.3263936403        0.0586504628       -0.2792484529
 C          3.3492655168       -0.7850004638        0.2222291617
 C          4.6013406841       -0.1110137974        0.6086312795
 C          4.6959048771        1.2264069948        0.5123128852
 C          5.9245504982        2.0278613888        0.8292012253
 C          6.8027892920        2.2133808673       -0.4160755467
 C          7.0770010099        0.9159676142       -1.1766906587
 H          6.1395763402        0.5456691993       -1.5982998689
 H          7.7307140880        1.1630248091       -2.0160458508
 C          7.7245391310       -0.1903345351       -0.3321332624
 H          8.5373431749       -0.6388315484       -0.9072566411
 H          8.1640315314        0.2405465108        0.5681082023
 C          6.7773922567       -1.3258512086        0.0602394842
 H          6.2648148435       -1.6994281922       -0.8298526716
 H          7.3788140305       -2.1467330888        0.4597515563
 C          5.7194201350       -0.9788197255        1.1151797970
 H          5.2503408046       -1.9140056050        1.4345431424
 H          6.2000992896       -0.5211565799        1.9820093374
 H          7.7481509686        2.6636781877       -0.1080614907
 H          6.3000875361        2.9075053197       -1.0936236700
 H          5.6105518626        3.0082813172        1.1911560208
 H          6.4880504698        1.5249630430        1.6126345715
 O          3.6794061442        2.0073456026        0.0629791923
 C          2.4853633382        1.4452364419       -0.3522504990
 O          1.6490081055        2.2745466772       -0.7663149631
 H         -1.5580778036        0.4550142135       -0.7294603115
 C         -1.2922251148       -0.0339609161        0.1963153849
 C         -0.0147968154       -0.5446882377        0.3698035847
 C          0.3083979826       -1.1439202557        1.5833098418
 C         -0.6341985932       -1.2344166544        2.5911488723
 C         -1.9166937677       -0.7496865825        2.4039499515
 C         -2.2468339300       -0.1423526390        1.1980590399
 N         -3.5333990416        0.3746920918        0.9798678000
 S         -4.1722101652        0.2640033751       -0.5803273968
 O         -3.8748554703       -1.0336104761       -1.1429666203
 O         -3.7349816671        1.4056839392       -1.3439793233
 C         -5.9144491616        0.4076757836       -0.2312948785
 C         -6.4339858981        1.6621881392        0.0282115131
 C         -7.7820861505        1.7795793499        0.3265572290
 C         -8.5834309777        0.6476873183        0.3604488674
 C         -8.0479531927       -0.6038835828        0.0963300731
 C         -6.6998265565       -0.7290037160       -0.2012352912
 H         -6.2410397254       -1.6796851085       -0.4206443298
 H         -8.6740977560       -1.4811603370        0.1201066906
 H         -9.6327432801        0.7424520357        0.5911407513
 H         -8.2024224086        2.7512541070        0.5299285906
 H         -5.7747295816        2.5133604978       -0.0196100256
 H         -4.1997043196        0.0865318417        1.6834186230
 H         -2.6545192980       -0.8336385637        3.1873702529
 H         -0.3712760976       -1.7016347693        3.5283126800
 H          1.2996336393       -1.5479238571        1.7217934379
 C          0.9804446443       -0.4587033557       -0.7583883480
 H          0.6088795968        0.3075970378       -1.4590010232
 C          1.0799747168       -1.7627393832       -1.5396777355
 C          0.6137755679       -3.0839235184       -1.0155024356
 C         -0.1596077093       -2.3977736533       -2.0987363482
 H         -0.1239513716       -2.8036396186       -3.0987837889
 H         -1.1128389604       -1.9583881037       -1.8388614777
 H          1.2015339162       -3.9542021805       -1.2642846323
 H          0.1849394048       -3.1178138967       -0.0266763424
 H          1.9610342580       -1.7836954227       -2.1738122608
 O          3.2452752606       -2.0307386047        0.3522398320
