  62
        -98.93638048
 C          0.9381867684        1.8161149009        0.2790306193
 C          1.5676715593        0.7951142316        1.0310339194
 C          2.8560831095        0.3130931024        0.5134616091
 C          3.3358311788        0.8120143524       -0.6399342211
 C          4.6517682189        0.4766890032       -1.2911394514
 C          4.8271453998       -0.9786065967       -1.7644753111
 C          5.5301385307       -1.8897324460       -0.7510568111
 H          6.2245866211       -2.5409064556       -1.2858805611
 H          6.1322847605       -1.2734444054       -0.0822814714
 C          4.6132835816       -2.7957042565        0.0750976494
 H          5.2014595721       -3.1957378659        0.9038344793
 H          4.2984363920       -3.6395723768       -0.5425475804
 C          3.3486825513       -2.1431500873        0.6357759595
 H          2.6032935810       -2.0354682480       -0.1555674003
 H          2.9207311620       -2.8224398474        1.3735641098
 C          3.5617349505       -0.7635616270        1.2865499892
 H          3.1286748707       -0.7566873070        2.2888474293
 H          4.6237460003       -0.5364730062        1.3704983088
 H          5.4326837395       -0.9452730565       -2.6715658913
 H          3.8563492500       -1.3901788375       -2.0389042908
 H          4.7263718082        1.1442470931       -2.1519892216
 H          5.4586997389        0.7339328140       -0.6009533517
 O          2.6696802980        1.7544897618       -1.3613627412
 C          1.4692744077        2.2905557010       -0.9203599110
 O          0.9957753269        3.1638061805       -1.6709380710
 H         -1.4164246204        0.0393477692        0.2487571303
 C         -1.8914234311        0.8148784488       -0.3351638397
 C         -1.4742240720        2.1325181491       -0.1830988501
 C         -2.0869784929        3.1183597685       -0.9449933602
 C         -3.0866899129        2.7870520076       -1.8424983698
 C         -3.5146916220        1.4793760872       -1.9740140294
 C         -2.9149929611        0.4851333278       -1.2085599594
 N         -3.3327950702       -0.8511624625       -1.3121414889
 S         -3.5348071091       -1.7630714123        0.0802983813
 O         -4.5580320785       -2.7276703331       -0.2664388282
 O         -3.8094800994       -0.9275565323        1.2248646812
 C         -1.9941204885       -2.6281510612        0.2802233511
 C         -1.6085885781       -3.4965385011       -0.7225173088
 C         -0.4351762375       -4.2159475102       -0.5700175090
 C          0.3270747027       -4.0580521194        0.5779530708
 C         -0.0715098577       -3.1796116795        1.5731089307
 C         -1.2442981383       -2.4564641204        1.4256391709
 H         -1.5815004186       -1.7608847504        2.1780569708
 H          0.5234032024       -3.0427988689        2.4618374105
 H          1.2371162131       -4.6247344188        0.6974750607
 H         -0.1186760973       -4.8987234002       -1.3421247089
 H         -2.2361701483       -3.5995878918       -1.5921020486
 H         -4.0941532202       -1.0005466532       -1.9587550587
 H         -4.3058812620        1.2247708665       -2.6632059392
 H         -3.5468760636        3.5604777671       -2.4387351899
 H         -1.7721536636        4.1437743487       -0.8485784505
 C         -0.3606995719        2.4105362301        0.7954764795
 H         -0.5846494113        1.8631222302        1.7224380497
 C         -0.1884767529        3.8779381803        1.1277725291
 C         -1.1663483331        4.5502771098        2.0429779192
 C          0.2284504872        4.2684356509        2.5125189689
 H          0.9107060466        5.0968791915        2.6308031885
 H          0.3770733780        3.4750967112        3.2304131891
 H         -1.9687594726        3.9478832493        2.4418883996
 H         -1.4430241939        5.5739590696        1.8416432991
 H          0.2209790365        4.4531711404        0.3054685889
 O          1.0863829599        0.3221261415        2.0950778596
