  62
        -98.94207761
 C         -1.9469874012       -0.8022586298        0.5189363577
 C         -1.4662990646        0.3208723835        1.2284615943
 C         -1.9258905306        1.6505141276        0.7871710479
 C         -2.7665811841        1.7267570071       -0.2605988542
 C         -3.3658616587        2.9514238773       -0.9017072004
 C         -2.3700841901        3.7086410122       -1.7908443390
 C         -1.0015716546        3.9448641600       -1.1583302570
 H         -0.5317737930        2.9827069169       -0.9427824605
 H         -0.3732972615        4.4386249551       -1.9054574435
 C         -1.0094049872        4.8180891509        0.0951309757
 H         -1.4792161968        5.7759680137       -0.1401511638
 H          0.0346923495        5.0144797495        0.3524979065
 C         -1.6952024681        4.2246496113        1.3295151062
 H         -2.7750696774        4.3368319297        1.2786631357
 H         -1.3630903540        4.8051933133        2.1950502110
 C         -1.3340394785        2.7700719192        1.6086733974
 H         -0.2455182299        2.6568846164        1.5380866903
 H         -1.5854187636        2.5353708117        2.6498724416
 H         -2.8165590568        4.6657453170       -2.0686873440
 H         -2.2178461688        3.1274837549       -2.7039718333
 H         -3.7793077745        3.6095460938       -0.1431001517
 H         -4.1915925375        2.6015746869       -1.5258464249
 O         -3.1937120107        0.6163570812       -0.9276365229
 C         -2.7725413612       -0.6575205835       -0.5945237998
 O         -3.2105821521       -1.5523600841       -1.3438671686
 O         -0.6717348486        0.2248571405        2.2046754946
 C         -1.4281098954       -2.1834074094        0.8912039017
 C         -0.4900106592       -2.6056519086       -0.2130809831
 C         -0.6983947628       -3.6899001918       -1.0529580718
 C          0.1631529611       -3.9192562280       -2.1133493129
 C          1.2227498011       -3.0687286697       -2.3686776676
 C          1.4479627770       -1.9871635456       -1.5214187644
 C          0.6150944428       -1.7921114480       -0.4346521497
 H          0.7865621138       -0.9560813750        0.2232283628
 N          2.5104229125       -1.1030909539       -1.7445852339
 S          2.4669957528        0.4980063781       -1.2499520725
 O          1.1219614710        1.0132910556       -1.1623822513
 O          3.3474810318        1.1738754671       -2.1814681706
 C          3.2688399561        0.4510520824        0.3402114057
 C          2.5668296832        0.6544857772        1.5100419325
 C          3.2462140165        0.5931406189        2.7179638772
 C          4.6067485335        0.3322597301        2.7369112152
 C          5.2998276188        0.1325112473        1.5518870994
 C          4.6270218432        0.1921390461        0.3434168932
 H          5.1278398158        0.0557911160       -0.6005362835
 H          6.3586920373       -0.0694898905        1.5678290661
 H          5.1282908732        0.2851297058        3.6799039561
 H          2.6980262879        0.7455185441        3.6340347942
 H          1.5041250528        0.8436140172        1.4809733295
 H          2.9901013519       -1.2185364326       -2.6244156969
 H          1.8679145026       -3.2319535777       -3.2185743849
 H         -0.0093743633       -4.7612953383       -2.7667621040
 H         -1.5432158274       -4.3395992929       -0.8946522181
 H         -0.8390639401       -2.0385058212        1.8080609387
 C         -2.5458979035       -3.1612154104        1.1719181234
 C         -2.2649179576       -4.3951136680        1.9751779690
 C         -3.0750680049       -3.2831330115        2.5684448702
 H         -4.1356755231       -3.4314284565        2.7051995213
 H         -2.6192430368       -2.6669297974        3.3295675771
 H         -2.7697072160       -5.3107173778        1.7073061000
 H         -1.2571021582       -4.5359092278        2.3351770238
 H         -3.2606595307       -3.2294564369        0.3605791831
