  62
        -98.94619558
 C         -1.3966178600       -1.1318999911       -0.1459005991
 C         -2.5162695501       -1.1686643202        0.7226716709
 C         -3.2656651401        0.0860638499        0.8637490596
 C         -2.8350557602        1.1832858792        0.2145875085
 C         -3.5231985103        2.5167222192        0.2416020971
 C         -4.5287271902        2.6459279979       -0.9108433731
 C         -5.4770545502        1.4537536877       -1.0374967319
 H         -4.9024080801        0.5688420875       -1.3203176310
 H         -6.1618037501        1.6683767269       -1.8608525522
 C         -6.2849691902        1.1473793390        0.2313662284
 H         -7.3232243402        0.9605055287       -0.0511221515
 H         -6.2814296503        2.0150252097        0.8921673675
 C         -5.8071345601       -0.0819657701        1.0067522597
 H         -5.7214126301       -0.9331990208        0.3265123106
 H         -6.5698357502       -0.3328828594        1.7488468299
 C         -4.4764852102        0.0746562007        1.7538781696
 H         -4.3592710702       -0.7936842386        2.4088630305
 H         -4.5080418203        0.9710162114        2.3766447986
 H         -3.9735786702        2.7420031870       -1.8466559532
 H         -5.1080788903        3.5592055981       -0.7635206641
 H         -4.0318504703        2.6382651602        1.1958802069
 H         -2.7688040603        3.2982597291        0.1415195663
 O         -1.7409368302        1.1883410684       -0.5857780515
 C         -0.9977399101        0.0368178583       -0.7970347703
 O         -0.0362791801        0.1908345775       -1.5724397504
 H          1.7964719900       -1.5459242822       -1.3878487085
 C          1.8512418700       -1.6804494911       -0.3196059984
 C          0.7486851600       -2.1531639204        0.3756058921
 C          0.8431342000       -2.2957435390        1.7571806122
 C          2.0102137299       -1.9721477882        2.4239160419
 C          3.1023133099       -1.4802876189        1.7293156915
 C          3.0114542500       -1.3228668403        0.3530607213
 N          4.1041827699       -0.7790386810       -0.3578941792
 S          4.5304226498        0.7934010094        0.0346991592
 O          5.4510875499        1.2098852884       -0.9989811212
 O          5.0411449198        0.8110395509        1.3828127692
 C          3.0310519798        1.7546689893       -0.0584330619
 C          2.7487894398        2.4323788780       -1.2265851326
 C          1.5714037398        3.1552445079       -1.3150467734
 C          0.6952251697        3.1780742789       -0.2425155135
 C          0.9876970097        2.4841960502        0.9204398173
 C          2.1673288797        1.7649571103        1.0180757781
 H          2.4279286597        1.2178995313        1.9097610986
 H          0.2957481197        2.4916846310        1.7484881372
 H         -0.2272595803        3.7318845388       -0.3178091241
 H          1.3340846298        3.6881754469       -2.2218019240
 H          3.4577383298        2.3882383372       -2.0379923325
 H          3.9800074000       -0.8365277420       -1.3596578892
 H          4.0104951399       -1.1925477083        2.2337641012
 H          2.0698047899       -2.0948219871        3.4949122921
 H         -0.0193554200       -2.6493399985        2.3047222726
 C         -0.5742227200       -2.4014436512       -0.3030895877
 H         -1.1138936199       -3.1727305206        0.2620583331
 C         -0.4575733599       -2.8440006927       -1.7458315372
 C          0.0389791702       -4.2251777330       -2.0493851358
 C         -1.4021313898       -3.8807179833       -2.2725489362
 H         -1.7590753998       -3.7842927844       -3.2870445563
 H         -2.1355941598       -4.2830223726       -1.5891866358
 H          0.2851287402       -4.8605439021       -1.2120754451
 H          0.6731197603       -4.3688499938       -2.9109067556
 H         -0.1780739199       -2.0450725934       -2.4214546681
 O         -2.8708668200       -2.2025731896        1.3496756620
