  62
        -98.94050528
 C         -1.9233492537        1.4117875788        0.3829647518
 C         -1.7133174231        0.2137897685       -0.3429888465
 C         -2.9150223053       -0.3853694942       -0.9415026176
 C         -4.1016288983        0.2383866623       -0.8407822083
 C         -5.4072115820       -0.2409450950       -1.4146543572
 C         -6.1405088870       -1.2604678521       -0.5319386168
 C         -5.5141717721       -2.6550809733       -0.4879365405
 H         -5.3579784144       -3.0139898414       -1.5057434037
 H         -6.2433849086       -3.3179473636       -0.0178310501
 C         -4.1974497155       -2.7337941269        0.2972082382
 H         -4.2206595016       -3.6012809060        0.9604655124
 H         -4.0996707449       -1.8496643713        0.9314800507
 C         -2.9462454944       -2.8605598142       -0.5721320923
 H         -2.9665102852       -3.8121195918       -1.1079149724
 H         -2.0744487057       -2.8627895288        0.0871612663
 C         -2.7716920610       -1.7280111201       -1.5924126338
 H         -3.4913441225       -1.8382902049       -2.4032166525
 H         -1.7636492091       -1.7887838705       -2.0106465823
 H         -7.1573910540       -1.3543260531       -0.9201515806
 H         -6.2089680748       -0.8594168474        0.4821199623
 H         -5.2382954252       -0.6685332105       -2.4035206830
 H         -6.0423097092        0.6411808638       -1.5218911304
 O         -4.2468592945        1.4304614326       -0.2018842610
 C         -3.1736416707        2.0329461900        0.4361119346
 O         -3.4525721468        3.1118488362        0.9966323169
 O         -0.5944851929       -0.3372399784       -0.4916826811
 C         -0.7838538277        2.1164437661        1.0983514453
 C          0.4387549757        2.1588244466        0.2135873394
 C          0.3156673063        2.6944559490       -1.0663826919
 C          1.3955192902        2.7360541553       -1.9262949537
 C          2.6329077640        2.2631673653       -1.5237764978
 C          2.7708821899        1.7413115203       -0.2459971880
 C          1.6807939937        1.6928030882        0.6154115674
 H          1.8071028926        1.2624386632        1.5966655485
 N          4.0369006819        1.2788652125        0.1734964956
 S          4.6818485837       -0.0784770011       -0.5655059357
 O          6.0247049721       -0.2035972685       -0.0440571004
 O          4.5603224416        0.0632919794       -1.9934599080
 C          3.6969111563       -1.4479586165        0.0165807027
 C          4.2487613670       -2.3354540531        0.9204858953
 C          3.4683606251       -3.3726919510        1.4041248971
 C          2.1514669040       -3.4981457916        0.9866475448
 C          1.6128377304       -2.5962019399        0.0828197388
 C          2.3894658416       -1.5602541166       -0.4107857805
 H          1.9766286229       -0.8441403867       -1.1023707126
 H          0.5852319767       -2.6664679185       -0.2353444045
 H          1.5408242920       -4.3014008821        1.3685781142
 H          3.8857281684       -4.0759791330        2.1069300238
 H          5.2752116749       -2.1965296233        1.2197318095
 H          4.1096758548        1.1680898507        1.1756227205
 H          3.4824995464        2.2729516497       -2.1865319202
 H          1.2764340450        3.1434274710       -2.9193036075
 H         -0.6500893136        3.0642034603       -1.3853290179
 H         -1.1322217623        3.1534354702        1.2365048637
 C         -0.5006086085        1.5621687733        2.4882397219
 C         -1.5467996251        0.8106207903        3.2546389496
 C         -0.3394292134        0.0924823772        2.7355371388
 H          0.4069599788       -0.2321396105        3.4461961750
 H         -0.4534927946       -0.5673588740        1.8904337990
 H         -1.6269117678        0.9876010997        4.3168166373
 H         -2.4970140783        0.6374375668        2.7705318385
 H          0.1283580834        2.2284057155        3.0710355557
