  62
        -98.93662497
 C         -2.3500375533       -0.5231702592        0.0391143904
 C         -3.4363096346       -0.4056750120        0.9376404680
 C         -4.4011122898        0.6712157647        0.6614139563
 C         -4.1983512948        1.4825532033       -0.3909434166
 C         -5.0164562625        2.6714368304       -0.8297704157
 C         -6.5446219497        2.5312036247       -0.8012035209
 C         -7.0730472701        1.1218189886       -1.1053864165
 H         -7.8369283016        1.1893091322       -1.8822638563
 H         -6.2680345804        0.4957625871       -1.4940957905
 C         -7.7028219071        0.4442626333        0.1140498000
 H         -8.3198547148        1.1752956031        0.6410933124
 H         -8.3647862859       -0.3539011279       -0.2305237387
 C         -6.7162809689       -0.1806839745        1.0997489371
 H         -7.2817628263       -0.5242467576        1.9693336700
 H         -6.2530053609       -1.0634088292        0.6505251562
 C         -5.5860520032        0.7438765643        1.5811376587
 H         -5.2391765975        0.3739194071        2.5498462648
 H         -5.9379703105        1.7649789234        1.7058490632
 H         -6.9221494198        2.8493885662        0.1695542239
 H         -6.9390489234        3.2343601196       -1.5367320968
 H         -4.7244721144        3.5285912829       -0.2160243182
 H         -4.6870928664        2.8803666814       -1.8503946287
 O         -3.1316543381        1.3373880301       -1.2272378868
 C         -2.1879432345        0.3393643616       -1.0436097889
 O         -1.2807367859        0.3291817634       -1.8968571237
 O         -3.5872651740       -1.1590637114        1.9365315167
 C         -1.3167782274       -1.6100531178        0.2781684220
 C          0.0246245264       -0.9691204752        0.5336843174
 C          0.1642455240       -0.1423978233        1.6463010228
 C          1.3646757709        0.4851140181        1.9143502835
 C          2.4533116048        0.3073438152        1.0773299174
 C          2.3279919561       -0.5194218511       -0.0295364895
 C          1.1207879648       -1.1578285577       -0.2911566334
 H          1.0392758954       -1.7921138167       -1.1598010134
 N          3.4189156188       -0.6920261367       -0.8939219944
 S          4.9489066771       -0.9507017926       -0.2661045329
 O          5.6781485131       -1.6219461042       -1.3198282099
 O          4.8932598232       -1.6306526190        1.0071485139
 C          5.6122720296        0.6882858794       -0.0555744865
 C          5.5906454065        1.5443655890       -1.1390680439
 C          6.1137446848        2.8193253702       -0.9948551150
 C          6.6494694173        3.2136325441        0.2222410440
 C          6.6668434329        2.3412848130        1.2996016272
 C          6.1442226235        1.0647043887        1.1620751955
 H          6.1313857435        0.3548181753        1.9738729400
 H          7.0836844215        2.6498053502        2.2448803014
 H          7.0552488209        4.2070023961        0.3314216588
 H          6.1009714016        3.5007428792       -1.8303170138
 H          5.1670188743        1.2007977798       -2.0681088835
 H          3.2319786152       -1.2892681081       -1.6855085144
 H          3.3915244126        0.7981910511        1.2776495059
 H          1.4559623508        1.1232355713        2.7802769015
 H         -0.6880510241        0.0021335520        2.2962883149
 H         -1.6337970469       -2.1147166307        1.2022700826
 C         -1.3184672545       -2.6179842435       -0.8509557552
 C         -0.7592069193       -3.9904018295       -0.6261798234
 C         -2.2381342495       -3.7978961034       -0.7723714795
 H         -2.7159837668       -4.1401355108       -1.6781262699
 H         -2.8564622418       -3.8892393369        0.1085766623
 H         -0.2222343230       -4.4691241889       -1.4313819505
 H         -0.3700266414       -4.2153412597        0.3554396701
 H         -1.1787208336       -2.1608340549       -1.8241653365
