  62
        -98.94578747
 C         -2.1948806787       -1.1670922226        0.1970636703
 C         -1.8605860788       -0.2469570668       -0.8265167594
 C         -2.6300166589        1.0074904819       -0.8329633558
 C         -3.5797517488        1.2052856684        0.0995213443
 C         -4.4118004813        2.4480827532        0.2276136231
 C         -3.7538177550        3.4671158142        1.1682011442
 C         -2.2811769190        3.7323500883        0.8551487501
 H         -1.9273581480        4.4874118032        1.5607534051
 H         -1.7069660223        2.8226032496        1.0475774298
 C         -2.0139862940        4.2064451607       -0.5803372703
 H         -2.9390875819        4.5726734324       -1.0267460742
 H         -1.3155108632        5.0452901413       -0.5466772785
 C         -1.3931656869        3.1463918672       -1.4918625329
 H         -0.5154104859        2.7187007382       -1.0014128987
 H         -1.0481783873        3.6438914122       -2.4020546016
 C         -2.3217787037        2.0018708645       -1.9176357073
 H         -3.2433649519        2.4144641275       -2.3331219344
 H         -1.8152526600        1.4350849898       -2.7043567127
 H         -4.3133136496        4.4024702901        1.1110674420
 H         -3.8249914146        3.0915573435        2.1918290463
 H         -4.5536202995        2.8870817805       -0.7580251696
 H         -5.3852185815        2.1684269267        0.6341586647
 O         -3.8632353796        0.3019792966        1.0729847722
 C         -3.1779793605       -0.9009672783        1.1490469834
 O         -3.5269305563       -1.6331544504        2.0980047421
 H         -0.1777772628       -0.6288361425        1.6587985745
 C          0.5136224499       -1.2939456426        1.1549816949
 C          0.0120607360       -2.3284158014        0.3758005177
 C          0.9148082778       -3.1719974126       -0.2599788001
 C          2.2784080346       -2.9810420185       -0.1163650472
 C          2.7728884251       -1.9437501358        0.6520307648
 C          1.8787047033       -1.0893190628        1.2849200810
 N          2.3703070627       -0.0103211759        2.0385165118
 S          3.6271219299        0.8833974286        1.3840988666
 O          4.8837839082        0.2691371484        1.7367028450
 O          3.4304827636        2.2287597416        1.8792592516
 C          3.4130046706        0.8254090518       -0.3866918690
 C          2.1750408115        1.1302839982       -0.9151671548
 C          1.9923446167        1.0614307598       -2.2858124713
 C          3.0524106542        0.7009786786       -3.1032811489
 C          4.2942915649        0.4104019279       -2.5601346469
 C          4.4780658515        0.4667976730       -1.1879393456
 H          5.4211270590        0.2324275173       -0.7212279988
 H          5.1162457890        0.1311986660       -3.1995042498
 H          2.9050198324        0.6428987204       -4.1701156376
 H          1.0171592492        1.2616177069       -2.6988725199
 H          1.3627070913        1.4008123933       -0.2587741036
 H          1.6517575269        0.5919458730        2.4119521113
 H          3.8315815170       -1.7808340179        0.7746533412
 H          2.9664850549       -3.6467028512       -0.6141420392
 H          0.5496086863       -3.9810367303       -0.8706133839
 C         -1.4837659108       -2.5054299034        0.2731483323
 H         -1.8317288826       -2.9814023451        1.2023604868
 C         -1.9012526651       -3.3704135836       -0.9000675429
 C         -2.0129466686       -4.8568994084       -0.7485273412
 C         -3.2505677919       -4.0208975834       -0.8689804395
 H         -3.8225147123       -4.0694939468       -1.7834274356
 H         -3.8537508057       -3.8654821973        0.0141785607
 H         -1.7378985815       -5.4831396564       -1.5838660997
 H         -1.7832913750       -5.2815612787        0.2171540118
 H         -1.5584031558       -2.9747442231       -1.8491325194
 O         -0.9715074697       -0.4580307741       -1.6893287880
