  62
        -98.94423926
 C         -1.9758418204       -1.1723120401       -0.1845282394
 C         -2.3857916804        0.0145519394       -0.8383490503
 C         -3.8314810604        0.2852702393       -0.8226453507
 C         -4.6615312604       -0.5875034603       -0.2232956402
 C         -6.1447020604       -0.4047205603       -0.0853999505
 C         -6.4951756007        0.3160889005        1.2239889390
 C         -5.6774881008        1.5842136008        1.4697646482
 H         -6.0308036509        2.0224927514        2.4056383279
 H         -4.6300554208        1.3112906510        1.6179149585
 C         -5.7729881907        2.6285336600        0.3487531375
 H         -5.9163800009        3.6133099203        0.7984233368
 H         -6.6458633206        2.4263598595       -0.2730604525
 C         -4.5303948106        2.7215997295       -0.5388826224
 H         -4.6148436306        3.6247858690       -1.1492735931
 H         -3.6395763807        2.8315709100        0.0851476676
 C         -4.3042586504        1.5434290788       -1.4946859116
 H         -5.2127140503        1.3565514384       -2.0710379816
 H         -3.5084544203        1.8282267784       -2.1894889817
 H         -6.3188703607       -0.3708094489        2.0548992195
 H         -7.5580007107        0.5639866405        1.2075693187
 H         -6.5160212604        0.1633676291       -0.9360356409
 H         -6.6143485304       -1.3897474704       -0.0846099299
 O         -4.2309491204       -1.7259643799        0.3778187707
 C         -2.8829434904       -2.0397236597        0.4249748711
 O         -2.6218003704       -3.0997993893        1.0287174118
 H          1.4975269696        0.1582160596       -1.0420533399
 C          1.2313476195        0.3172521703       -0.0114460200
 C          0.2499367295       -0.4494865594        0.5944306604
 C         -0.0830711207       -0.1840592385        1.9213921601
 C          0.5427501191        0.8307626520        2.6174110495
 C          1.5201744991        1.5982389317        2.0072125291
 C          1.8605151093        1.3426528408        0.6845846193
 N          2.8261130694        2.1302153404        0.0403612589
 S          3.9826540395        1.4711784098       -0.9663380805
 O          4.9313382795        2.5436072098       -1.1694712611
 O          3.3748763297        0.9218665990       -2.1503801302
 C          4.7376090595        0.1786256106        0.0031665605
 C          5.7556597894        0.5207740912        0.8722896204
 C          6.3158338793       -0.4629764382        1.6704728111
 C          5.8446525894       -1.7650010583        1.5928427520
 C          4.8214283296       -2.0916755789        0.7165737521
 C          4.2592715196       -1.1127065095       -0.0878535387
 H          3.4664959897       -1.3321696101       -0.7834042086
 H          4.4573411697       -3.1048577090        0.6548475727
 H          6.2789200494       -2.5307774978        2.2160148726
 H          7.1149696292       -0.2129160976        2.3495297211
 H          6.0995007193        1.5422378013        0.8922884597
 H          3.2249821292        2.8573489809        0.6154709785
 H          2.0041554790        2.3988164021        2.5457454886
 H          0.2703414590        1.0275445827        3.6433981393
 H         -0.8516653007       -0.7819089682        2.3929391805
 C         -0.5029322304       -1.5428930799       -0.1230752490
 H         -0.4482985204       -2.4545739595        0.4888754817
 C          0.0234320198       -1.8565742108       -1.5068937587
 C          1.1914139899       -2.7804423609       -1.6703617679
 C         -0.1826721800       -3.2319771512       -2.0635315678
 H         -0.4140773298       -3.3337554120       -3.1132159577
 H         -0.6854877600       -3.9516026809       -1.4336342073
 H          1.9063773100       -2.5730264214       -2.4530999480
 H          1.6199234499       -3.2043700902       -0.7744719576
 H         -0.0700492601       -1.0251114613       -2.1960157393
 O         -1.5930897804        0.8095954291       -1.4075228707
