  62
        -98.93839866
 C         -2.6341452226       -1.0136831231        0.5347203957
 C         -2.7591409240        0.2044116130        1.2524122294
 C         -3.9200830833        1.0366714274        0.9239637489
 C         -4.7935339094        0.6196395108       -0.0104409863
 C         -6.0466438099        1.3355679950       -0.4361345957
 C         -5.8177391738        2.4225593568       -1.4950512440
 C         -5.1299463454        3.6900736634       -0.9865883075
 H         -5.2291939722        4.4443752074       -1.7696873862
 H         -5.6585854770        4.0613538077       -0.1080706301
 C         -3.6408541534        3.5131439444       -0.6580313754
 H         -3.2699841418        2.5981914184       -1.1264022289
 H         -3.0726264055        4.3423016532       -1.0856522515
 C         -3.3213000598        3.4683170888        0.8363100149
 H         -2.2470539282        3.3024837159        0.9506590841
 H         -3.5646515925        4.4307390253        1.2919042190
 C         -4.0560503034        2.3638687028        1.6073067528
 H         -5.1076673410        2.6239468530        1.7260695670
 H         -3.6021346530        2.2762473564        2.5973841287
 H         -5.2347074227        1.9949945715       -2.3140984795
 H         -6.7963228710        2.7003272853       -1.8934133253
 H         -6.7084159448        0.5768596762       -0.8594145449
 H         -6.5325703727        1.7728019166        0.4366122066
 O         -4.6390770518       -0.5517317900       -0.6792335777
 C         -3.5520517799       -1.3848606589       -0.4484769500
 O         -3.5458686730       -2.4005833053       -1.1697858489
 O         -1.9403375613        0.5722808571        2.1372907904
 C         -1.4313619470       -1.8829610230        0.8632435254
 C         -0.3488457100       -1.6684523688       -0.1681195065
 C         -0.3907344611       -2.2745373530       -1.4188720321
 C          0.6129788691       -2.0400610402       -2.3415250298
 C          1.6734364183       -1.2035328279       -2.0409871156
 C          1.7236381574       -0.5912801562       -0.7958012589
 C          0.7170949395       -0.8310172556        0.1311622082
 H          0.7484885860       -0.3442028065        1.0971052461
 N          2.7879019224        0.2757259540       -0.4870566820
 S          4.3386155831       -0.2237155074       -0.9380716712
 O          4.5400467217        0.1155310616       -2.3246923651
 O          4.5306050554       -1.6148039922       -0.5946857319
 C          5.3541632281        0.8177628469        0.0905716800
 C          5.8891913823        0.3033109358        1.2561893555
 C          6.6647603516        1.1262539518        2.0577254859
 C          6.8877778110        2.4427733948        1.6835204224
 C          6.3433599021        2.9447604726        0.5105703765
 C          5.5683924457        2.1271705356       -0.2963730550
 H          5.1340298014        2.4706971716       -1.2206441773
 H          6.5214709537        3.9681638145        0.2222943320
 H          7.4923442831        3.0807774603        2.3086285815
 H          7.0918744355        0.7380894524        2.9683544464
 H          5.6968164505       -0.7286081831        1.5027991374
 H          2.7656823387        0.5758945279        0.4780993433
 H          2.4641646080       -1.0218524148       -2.7511931344
 H          0.5699592240       -2.5156341697       -3.3101746810
 H         -1.2256404926       -2.9088656723       -1.6711008259
 H         -1.0568710377       -1.4959233650        1.8207520005
 C         -1.7728039773       -3.3478470499        1.0426316827
 C         -0.7849975253       -4.2387762877        1.7325462337
 C         -2.0657312397       -3.8680703567        2.4166049820
 H         -2.8292157646       -4.6231388703        2.5284397640
 H         -2.0215915419       -3.1674887111        3.2377502082
 H         -0.6652710325       -5.2495589929        1.3741772747
 H          0.1300878972       -3.7883450463        2.0869743252
 H         -2.3433281414       -3.7661387053        0.2243402851
