  62
        -98.93504123
 C         -1.8068757300       -1.2844169695       -0.1094872412
 C         -2.9578643101       -1.2459109200        0.7201954188
 C         -4.1490512999       -0.5825894294        0.1715935792
 C         -4.0932225698       -0.0641278384       -1.0681393004
 C         -5.1882820596        0.7139628123       -1.7405838698
 C         -5.2300469594        2.1510302619       -1.1826185387
 C         -6.5022934294        2.4898787415       -0.4052494285
 H         -6.3246842492        3.4328909311        0.1162777822
 H         -7.3174998093        2.6537475322       -1.1132076984
 C         -6.9669834796        1.4396293508        0.6082625007
 H         -7.7054968895        1.9238760704        1.2507653810
 H         -7.4878071997        0.6336972213        0.0890614700
 C         -5.8720468297        0.8275414599        1.4915962802
 H         -5.0205976096        1.5037241597        1.5739409308
 H         -6.2773389298        0.7042417893        2.4979684101
 C         -5.3801022299       -0.5583980098        1.0342940692
 H         -6.1929597800       -1.0845567893        0.5260642788
 H         -5.1123671801       -1.1433009005        1.9191805988
 H         -4.3597784994        2.2939138012       -0.5381387186
 H         -5.1319182592        2.8633624025       -2.0033598282
 H         -4.9695237396        0.7275531830       -2.8085514698
 H         -6.1425218097        0.2152366623       -1.5862442502
 O         -2.9776416698       -0.1237486780       -1.8373164104
 C         -1.8067665199       -0.7232606086       -1.3865615108
 O         -0.8770890598       -0.6748897581       -2.2137527407
 O         -2.9869867102       -1.7557091408        1.8724346384
 C         -0.5829707102       -1.9786556602        0.4631829983
 C          0.3723352100       -0.9934907008        1.0859762291
 C          0.8490233799       -1.1788244519        2.3781594890
 C          1.7367439300       -0.2763851424        2.9390262897
 C          2.1695501002        0.8248321580        2.2226739305
 C          1.7011111203        1.0171781191        0.9289684707
 C          0.8103261702        0.1125273097        0.3697156300
 H          0.4523225203        0.2660940005       -0.6377447699
 N          2.1427203705        2.1288398096        0.1829852315
 S          3.8000532606        2.2895231794       -0.0147570683
 O          4.3812027206        2.7354290684        1.2265035521
 O          3.9704344508        3.1663851603       -1.1504272076
 C          4.3688604903        0.6451734996       -0.4010733895
 C          4.2266319603        0.1943146506       -1.6984831899
 C          4.5984954501       -1.1054257992       -2.0011459508
 C          5.0901982899       -1.9322888700       -1.0025908414
 C          5.2254713499       -1.4647848210        0.2952613289
 C          4.8629047701       -0.1631614912        0.6029886399
 H          4.9603517902        0.2402944680        1.5970880002
 H          5.6081215998       -2.1102581117        1.0691410885
 H          5.3677281897       -2.9470961399       -1.2387903122
 H          4.4938564701       -1.4701409684       -3.0102234111
 H          3.8388710504        0.8671088513       -2.4469402194
 H          1.6835676806        2.2046645703       -0.7138393784
 H          2.8604862203        1.5384372876        2.6416361311
 H          2.0937236700       -0.4301128833        3.9458367396
 H          0.5078502097       -2.0299539122        2.9488260283
 H         -0.9805969603       -2.6080487907        1.2747168078
 C          0.0968451197       -2.9082555195       -0.5340418724
 C          1.4266141198       -2.6324190193       -1.1620948021
 C          1.3017906796       -3.7014865701       -0.1213515629
 H          1.3692268894       -4.7348876698       -0.4248614037
 H          1.7186079196       -3.4956718509        0.8528314873
 H          1.5576968498       -2.9190888785       -2.1940384523
 H          1.9420399199       -1.7225103196       -0.8985341114
 H         -0.6293114604       -3.4173413189       -1.1603383928
