  62
        -98.94341154
 C         -1.1155080168       -1.2901101220       -0.1322290622
 C         -1.9159900803       -0.8630779154        0.9598206503
 C         -2.8123212411        0.2720270788        0.7106590834
 C         -2.7977862260        0.8638096169       -0.4971424687
 C         -3.7035472938        1.9851082113       -0.9150731818
 C         -4.9880367103        1.4465929646       -1.5609741574
 C         -5.6788066162        0.3543925600       -0.7441220888
 H         -6.5896969243        0.0756861551       -1.2784465030
 H         -5.0390503104       -0.5307601319       -0.7181510344
 C         -6.0340357556        0.7636476425        0.6922823175
 H         -6.0216715932        1.8504271300        0.7822241039
 H         -7.0522866917        0.4333658933        0.9083440439
 C         -5.1314254569        0.1547826299        1.7672349030
 H         -5.0703386099       -0.9269892073        1.6238670892
 H         -5.5977600702        0.3290373692        2.7405695197
 C         -3.7043657763        0.7134498260        1.8364611511
 H         -3.2437140834        0.3314692376        2.7520345253
 H         -3.7412901235        1.8029054308        1.8983482865
 H         -4.7374002407        1.0340275085       -2.5409823513
 H         -5.6758492560        2.2809134686       -1.7101066320
 H         -3.9540553460        2.5907085748       -0.0462090065
 H         -3.1751816612        2.6034255137       -1.6421831197
 O         -1.9776550079        0.4675575146       -1.4999413350
 C         -1.1270992288       -0.6198756958       -1.3559977766
 O         -0.4559547175       -0.8612053205       -2.3777064038
 O         -1.8889605334       -1.4191199347        2.0895984395
 C         -0.2444765243       -2.5132823718        0.1045343408
 C          1.1546041217       -2.1064948907        0.4851713911
 C          1.7312729116       -2.5271265589        1.6772132323
 C          3.0058302735       -2.1148930638        2.0300337899
 C          3.7290119945       -1.2728347883        1.2037107653
 C          3.1573608282       -0.8452241266        0.0126690493
 C          1.8840768838       -1.2620450548       -0.3416792861
 H          1.4456781094       -0.9234666898       -1.2689550298
 N          3.8696537131        0.0539025174       -0.8187418085
 S          3.9424335305        1.6150984952       -0.2147517513
 O          4.4860973730        2.4300228798       -1.2763768930
 O          4.6860756383        1.5908998413        1.0186230589
 C          2.2490899513        2.0787728440        0.1068633145
 C          1.6382761505        1.6317206265        1.2620576471
 C          0.3114441250        1.9602025565        1.4871762502
 C         -0.3742570878        2.7344699177        0.5643773308
 C          0.2501032571        3.1681667448       -0.5943778702
 C          1.5723061889        2.8302435925       -0.8322232894
 H          2.0959672306        3.1483648937       -1.7196517960
 H         -0.2895798132        3.7640898581       -1.3128001657
 H         -1.4026530251        2.9985115356        0.7513473325
 H         -0.1855202763        1.6054216881        2.3763140724
 H          2.2048299474        1.0465312282        1.9680399717
 H          3.4898473428        0.0919134063       -1.7556325402
 H          4.7115333233       -0.9206526823        1.4721905171
 H          3.4392476985       -2.4491250993        2.9602996263
 H          1.1674039709       -3.1685918060        2.3384758712
 H         -0.6940931375       -3.0053225405        0.9810937582
 C         -0.2923481400       -3.5078934622       -1.0485930737
 C          0.8884994902       -3.8623950075       -1.8975819042
 C          0.3624062788       -4.8499693252       -0.9026436407
 H         -0.1586349442       -5.7247165489       -1.2610368621
 H          0.9498418176       -5.0185221021       -0.0125047310
 H          0.7124212694       -4.0362365018       -2.9483422920
 H          1.8346750944       -3.3877689773       -1.6908695616
 H         -1.2519470122       -3.4913584828       -1.5557483846
