  62
        -98.93875300
 C          1.8601574492        0.6826694723        0.8872177578
 C          2.1852532443       -0.6971725568        0.8182705291
 C          3.6065729062       -1.0304179568        0.6646386818
 C          4.5100023712       -0.0349393776        0.6183883031
 C          5.9846901616       -0.2220376045        0.4118466587
 C          6.3468100695       -0.1690914615       -1.0789903740
 C          5.4689458542       -1.0583937444       -1.9597064717
 H          4.4462278998       -0.6742071208       -1.9478786865
 H          5.8352833791       -0.9639414781       -2.9843204746
 C          5.4578167746       -2.5391506476       -1.5549371094
 H          5.5655960366       -3.1485348292       -2.4547388842
 H          6.3136462940       -2.7542833308       -0.9140659322
 C          4.1750950201       -2.9968282232       -0.8579946743
 H          4.1831897838       -4.0892224921       -0.8152099586
 H          3.3082456958       -2.6987866215       -1.4532587110
 C          3.9744072825       -2.4845722021        0.5738367845
 H          3.1335971525       -3.0330338566        1.0082551360
 H          4.8661847140       -2.6942224258        1.1680830188
 H          7.3925176855       -0.4614372067       -1.1910506779
 H          6.2435545056        0.8624468953       -1.4236833820
 H          6.2873256310       -1.1771915855        0.8366748708
 H          6.5097700605        0.5802241286        0.9330464323
 O          4.1679434019        1.2736005042        0.7076343175
 C          2.8398904672        1.6749232818        0.8237625618
 O          2.6982564435        2.9099294827        0.8606270035
 O          1.3191296115       -1.6102724390        0.8894713009
 C          0.3870640706        1.0168569013        1.0297584291
 C         -0.2789460822        1.2042177530       -0.3093375047
 C          0.3113302095        1.9498222138       -1.3242828438
 C         -0.3382628048        2.1217138658       -2.5332501923
 C         -1.5936120091        1.5783935354       -2.7436940552
 C         -2.1931138973        0.8335765208       -1.7353027126
 C         -1.5232729805        0.6353068845       -0.5360970015
 H         -1.9820729163        0.0338272035        0.2331073489
 N         -3.4629437441        0.2676290481       -1.9088881178
 S         -4.5469101998        0.2743819560       -0.6305096562
 O         -5.8479123985        0.1802780051       -1.2565046453
 O         -4.3339163510        1.4110906677        0.2334454928
 C         -4.2108453246       -1.2410678020        0.2393266234
 C         -4.2171374099       -2.4211624818       -0.4775313029
 C         -3.9673167519       -3.6096323131        0.1889750577
 C         -3.7193681644       -3.5983167294        1.5533903362
 C         -3.7206045418       -2.4055326534        2.2595403049
 C         -3.9693773712       -1.2131162599        1.5983865631
 H         -3.9719823101       -0.2626251205        2.1091100844
 H         -3.5251437843       -2.3980644457        3.3199362154
 H         -3.5219136344       -4.5241288681        2.0703127545
 H         -3.9635245906       -4.5400225512       -0.3557252181
 H         -4.4160222689       -2.3896328717       -1.5357455752
 H         -3.9102884735        0.4837177229       -2.7876781380
 H         -2.1056216626        1.7287787348       -3.6820656259
 H          0.1314107110        2.6994100744       -3.3153221653
 H          1.2769393457        2.4015187718       -1.1524409135
 H         -0.0588971714        0.1194304569        1.4886470485
 C          0.1133245139        2.1820054808        1.9704796120
 C         -0.2900756017        3.5449445227        1.5045391288
 C         -1.2886033768        2.6682743302        2.1958664280
 H         -1.5875371720        2.9228622436        3.2018388144
 H         -2.0820135386        2.2446812987        1.5962666786
 H          0.1168308432        4.3952829013        2.0300069676
 H         -0.4030840610        3.7075307506        0.4441945270
 H          0.7587759146        2.1501484422        2.8430325230
