  62
        -98.93758494
 C         -2.2281838765       -1.1822144101        0.2984147418
 C         -2.3713012472       -0.0483006253       -0.5355902486
 C         -3.2082532031        1.0474833562       -0.0133110130
 C         -3.7661312276        0.9399886296        1.2037874919
 C         -4.6077261026        1.9471363871        1.9465935244
 C         -5.6870810859        2.6951916365        1.1514746186
 C         -6.3281620415        1.8924827273        0.0099770160
 H         -6.0484121878        0.8406728817        0.0890539889
 H         -7.4141297508        1.9492534843        0.1037046499
 C         -5.9492364229        2.4186087435       -1.3765608651
 H         -6.6929201515        2.0733648606       -2.0987171319
 H         -5.9914508298        3.5098556635       -1.3604358270
 C         -4.5797445937        1.9795963312       -1.8934693338
 H         -4.5985173122        0.9131539548       -2.1335342300
 H         -4.3841455493        2.5145044933       -2.8260025275
 C         -3.4033593993        2.2189955001       -0.9328431503
 H         -3.5276146953        3.1466045927       -0.3792003945
 H         -2.4890190953        2.2930678344       -1.5284166920
 H         -6.4570633872        2.9895295078        1.8665712583
 H         -5.2684007123        3.6154187509        0.7461750375
 H         -5.0751819751        1.3819970124        2.7565130154
 H         -3.9342692967        2.6748039659        2.4091661541
 O         -3.5937051747       -0.1654347644        1.9813537651
 C         -2.8316287321       -1.2373357411        1.5584189184
 O         -2.7717399118       -2.1746969434        2.3787752053
 O         -1.8326087297        0.0756775708       -1.6687295537
 C         -1.3856274409       -2.3947306740       -0.0741552062
 C          0.0721387552       -2.0764614202        0.1580911735
 C          0.7506060001       -2.6136728467        1.2461488374
 C          2.0689461010       -2.2730045511        1.4927272339
 C          2.7339549349       -1.3845496113        0.6663029715
 C          2.0604438992       -0.8340424803       -0.4157280659
 C          0.7460833321       -1.1927254328       -0.6728187594
 H          0.2225958813       -0.7422506188       -1.5027586553
 N          2.7203898645        0.0968514529       -1.2448864047
 S          3.2803731827        1.4865961335       -0.4786064311
 O          2.4935596208        1.8000859448        0.6931159183
 O          3.3352117018        2.5008795905       -1.5090449021
 C          4.9421785042        1.0587515368       -0.0023895946
 C          5.3202079026        1.1318799341        1.3238360916
 C          6.6207549184        0.7979798207        1.6690322664
 C          7.5148637456        0.3998155748        0.6870052047
 C          7.1198457564        0.3339535992       -0.6410608032
 C          5.8216744010        0.6670722778       -0.9929082614
 H          5.4740856874        0.6332077335       -2.0118644259
 H          7.8181703059        0.0239740581       -1.4016408864
 H          8.5256790067        0.1394334633        0.9585947147
 H          6.9293026709        0.8488872169        2.7008735719
 H          4.5877242283        1.4406359066        2.0526785170
 H          2.1662216123        0.3579774592       -2.0494231235
 H          3.7576179914       -1.1070182999        0.8586716125
 H          2.5825397631       -2.6991706524        2.3410555004
 H          0.2270228846       -3.2846969414        1.9119460641
 H         -1.6733578332       -3.1819662673        0.6351439575
 C         -1.6480498962       -2.8974635621       -1.4795243971
 C         -1.2491556317       -4.2976525208       -1.8326515764
 C         -2.6987637473       -3.9426254201       -1.6970285109
 H         -3.3039663280       -3.8859827405       -2.5894308603
 H         -3.2338727572       -4.3017908083       -0.8297684838
 H         -0.8564650609       -4.4877485464       -2.8196090767
 H         -0.8009917054       -4.8992836770       -1.0564552850
 H         -1.5452453761       -2.1357165455       -2.2405907897
