  62
        -98.94079781
 C         -2.6574845506       -0.1193603619        0.3195334267
 C         -2.6741183154       -1.1240491063       -0.6816864766
 C         -2.1286183550       -2.4313329342       -0.3087443780
 C         -1.6290551276       -2.6107714975        0.9267719664
 C         -1.0018107903       -3.8723251175        1.4547993198
 C          0.4723197855       -4.0312971303        1.0572518730
 C          0.7128685554       -4.4406277888       -0.3968760771
 H          1.7520772443       -4.7681816980       -0.4672970833
 H          0.0827479235       -5.2964687238       -0.6429169249
 C          0.4842593792       -3.3159391654       -1.4161384610
 H          1.3010320604       -3.3163973686       -2.1424643184
 H          0.5120158192       -2.3502043556       -0.9062441345
 C         -0.8170468135       -3.4256989735       -2.2111316115
 H         -0.8991849663       -2.5431553021       -2.8507119018
 H         -0.7806565093       -4.3086942287       -2.8543168852
 C         -2.0858749013       -3.5053948679       -1.3541205912
 H         -2.9484925580       -3.3599007135       -2.0097109451
 H         -2.1628945175       -4.4873412295       -0.8870383621
 H          0.9880800845       -3.0880334822        1.2573232062
 H          0.9053231174       -4.7962092935        1.7066819318
 H         -1.5705168963       -4.7390820526        1.1156500333
 H         -1.0637623255       -3.8182967469        2.5439526764
 O         -1.6588595991       -1.6370701681        1.8724347328
 C         -2.1434208707       -0.3631972024        1.5938735893
 O         -2.0806695385        0.4128128109        2.5664008698
 O         -3.1364748319       -0.9322880707       -1.8397963022
 C         -3.1065421123        1.2642019402       -0.1198424153
 C         -1.9422843887        1.9376241133       -0.8051353067
 C         -2.0861315626        2.5649659133       -2.0366507698
 C         -0.9862613484        3.0997657195       -2.6852793162
 C          0.2783659788        2.9877770513       -2.1368897347
 C          0.4306882740        2.3673081129       -0.9012885734
 C         -0.6800803905        1.8797906696       -0.2312137638
 H         -0.5440666345        1.4136947249        0.7336692003
 N          1.6931233397        2.2146297212       -0.3090820014
 S          1.9776352425        0.7910753478        0.5642105139
 O          1.2460776432       -0.3086977378       -0.0173382174
 O          1.7493595699        1.0617353749        1.9617734497
 C          3.7260613865        0.5764706988        0.2817148339
 C          4.1489717286       -0.3321057116       -0.6695592898
 C          5.5078186831       -0.4716451355       -0.9059106835
 C          6.4147687993        0.2982250166       -0.1933943877
 C          5.9750767532        1.2055302229        0.7594557051
 C          4.6181823089        1.3487979625        1.0019672038
 H          4.2293447862        2.0314827910        1.7395872786
 H          6.6832443295        1.7997449911        1.3139566160
 H          7.4713358195        0.1880273117       -0.3794555105
 H          5.8519817051       -1.1790792253       -1.6429507313
 H          3.4057634385       -0.9125792352       -1.1927171551
 H          2.4575439844        2.4429518932       -0.9295599101
 H          1.1416069738        3.3710193112       -2.6593424070
 H         -1.1111681806        3.5839349620       -3.6418791924
 H         -3.0622894879        2.6074490321       -2.4969710471
 H         -3.8795698966        1.0886359380       -0.8860897933
 C         -3.7340348384        2.1090137297        0.9757044670
 C         -3.0301662499        3.2582604845        1.6258164666
 C         -4.1625738239        3.5164790423        0.6803926850
 H         -5.1019326225        3.8648697526        1.0816516837
 H         -3.9176328356        3.9171348516       -0.2915613782
 H         -3.1847218540        3.4031279943        2.6840160518
 H         -2.0261865528        3.4874441389        1.3031136003
 H         -4.3849454159        1.5227024944        1.6158027329
