  62
        -98.93268111
 C         -2.1824126012       -1.1534062999        0.0385893499
 C         -2.0346389913        0.1477348002       -0.4984857397
 C         -2.9251142314        1.1903132300        0.0521717406
 C         -3.8215634613        0.8745524197        1.0038485705
 C         -4.8174431514        1.7296234194        1.7597085708
 C         -5.2209364215        3.1074432495        1.2396124912
 C         -5.9768050415        3.0990961298       -0.0880429088
 H         -6.9536108315        2.6349043497        0.0688542711
 H         -6.1448508916        4.1356385299       -0.3885707885
 C         -5.2919156515        2.3568334002       -1.2332122390
 H         -5.2386631814        1.2911569501       -1.0012641493
 H         -5.9203086616        2.4609495903       -2.1219457290
 C         -3.8926903916        2.8545020404       -1.5932730889
 H         -3.5996449016        2.3650294206       -2.5259976591
 H         -3.9192270117        3.9307068004       -1.7747605886
 C         -2.7951919215        2.5572980002       -0.5550821190
 H         -1.8276170115        2.5778121304       -1.0658342691
 H         -2.7656735116        3.3172398400        0.2225255712
 H         -4.3523844616        3.7562380696        1.1748421913
 H         -5.8844011815        3.5398034792        1.9936672013
 H         -5.7142539713        1.1109740093        1.8642945007
 H         -4.4050002814        1.8488797591        2.7677480408
 O         -3.9242140412       -0.3947864305        1.4954915002
 C         -3.1244674812       -1.4220736503        1.0345549099
 O         -3.3519079311       -2.5235721705        1.5751312496
 H          0.6127118787       -0.4687962097       -0.1746341100
 C          0.8438661888       -1.3758165798        0.3633411298
 C         -0.0548999711       -2.4338827099        0.3694329795
 C          0.2679766190       -3.5847914500        1.0792423792
 C          1.4680713090       -3.6793974101        1.7602882891
 C          2.3711951290       -2.6334433801        1.7346369794
 C          2.0531481588       -1.4720157399        1.0371369097
 N          2.9399053788       -0.3865121898        1.0362223000
 S          3.0208326586        0.6325236606       -0.3075962698
 O          2.0734156486        1.7037775704       -0.1347814694
 O          2.9306339887       -0.1412625091       -1.5238851000
 C          4.6795083086        1.2643866706       -0.1169101596
 C          5.7222379186        0.6045626109       -0.7401648998
 C          7.0141362486        1.0756896309       -0.5673103198
 C          7.2414253185        2.1917417407        0.2241128305
 C          6.1853037585        2.8444084005        0.8424136107
 C          4.8909164385        2.3785844404        0.6728058107
 H          4.0378079185        2.8574716302        1.1247807508
 H          6.3648821285        3.7138952103        1.4540155110
 H          8.2474702185        2.5571816208        0.3568450106
 H          7.8363878386        0.5722544911       -1.0497481399
 H          5.4960636887       -0.2520969490       -1.3545962301
 H          3.8557406888       -0.6191834198        1.3944041599
 H          3.3118723490       -2.7063452601        2.2589850193
 H          1.7056539691       -4.5782910903        2.3085588389
 H         -0.4370829309       -4.4026449301        1.1034082790
 C         -1.3545805411       -2.3518006998       -0.3961792004
 H         -1.9534626211       -3.2338349599       -0.1278071507
 C         -1.0770346912       -2.4026133893       -1.8861531505
 C         -0.8555905411       -3.7330342791       -2.5380949208
 C         -2.1144930012       -2.9655338192       -2.8077928906
 H         -2.2465465712       -2.5048517889       -3.7751628504
 H         -3.0333978911       -3.3214778794       -2.3642554206
 H         -0.1168713311       -3.8020456889       -3.3218100509
 H         -0.9241674910       -4.6137939493       -1.9175492811
 H         -0.4930389313       -1.5639936092       -2.2432639302
 O         -1.2089753114        0.4577612205       -1.3981110897
