  62
        -98.94051030
 C          0.9515346028        1.4719721603       -0.7951933309
 C          2.2320288474        1.5636822705       -0.1961053226
 C          3.1448170319        0.4218332093       -0.3697491639
 C          2.7222801991       -0.6565909724       -1.0547109048
 C          3.4172625895       -1.9564773958       -1.4044839575
 C          4.7345706866       -2.3397311129       -0.7367521932
 C          4.6194449117       -2.6729677929        0.7506672395
 H          5.6261674263       -2.8202788355        1.1481971625
 H          4.0788841330       -3.6174908219        0.8537981693
 C          3.8946144428       -1.6378384077        1.6081098408
 H          3.8709313290       -2.0136630083        2.6351925323
 H          2.8545819821       -1.5467728072        1.2840739537
 C          4.5340095216       -0.2509227976        1.6375075522
 H          5.5776042971       -0.3344488708        1.9483510498
 H          4.0044461100        0.3372227128        2.3922215483
 C          4.4760529425        0.5331434816        0.3160431195
 H          5.2805790513        0.2388320714       -0.3537304887
 H          4.6122117037        1.5935569554        0.5484047164
 H          5.4782274416       -1.5652285609       -0.8992755625
 H          5.0944487720       -3.2371406843       -1.2474714014
 H          2.6811736523       -2.7452206226       -1.2168133045
 H          3.5718702177       -1.9287977766       -2.4888748127
 O          1.4862095531       -0.6978910237       -1.6262970837
 C          0.5673498651        0.3322763271       -1.4997021082
 O         -0.5168134174        0.0944240360       -2.0671957152
 H         -1.4334437121        0.4116071948        0.0249580175
 C         -1.4640287175        1.1237411200        0.8331272039
 C         -0.8083294338        2.3393629369        0.7057972733
 C         -0.8803731202        3.2485627821        1.7541224606
 C         -1.5742113106        2.9338412501        2.9096485438
 C         -2.1774478106        1.6973403516        3.0549532207
 C         -2.1112706378        0.7830153579        2.0098337073
 N         -2.6841267239       -0.4932346739        2.1121194806
 S         -1.8862923106       -1.7932589846        1.4117726404
 O         -2.3616586735       -2.9434445838        2.1575958439
 O         -0.4527917949       -1.6074989062        1.4086956658
 C         -2.5327880612       -1.9052930859       -0.2409444418
 C         -1.7509203052       -2.4913216051       -1.2144799090
 C         -2.2691283390       -2.6427134146       -2.4901556453
 C         -3.5540685474       -2.2061981601       -2.7677614327
 C         -4.3274029978       -1.6194573003       -1.7780092919
 C         -3.8167532408       -1.4693758549       -0.4991619846
 H         -4.3871502126       -1.0113579747        0.2918868672
 H         -5.3248288590       -1.2748709551       -1.9998475436
 H         -3.9519734003       -2.3188193125       -3.7641233072
 H         -1.6621407849       -3.0881532936       -3.2619410924
 H         -0.7476103381       -2.7982770828       -0.9632407800
 H         -3.0567715644       -0.7280225570        3.0207943963
 H         -2.6864035286        1.4360255091        3.9702544852
 H         -1.6237573120        3.6484475498        3.7171701651
 H         -0.3692142544        4.1960646115        1.6699101243
 C         -0.0002651203        2.6283604583       -0.5379492163
 H          0.6401536795        3.4957551194       -0.3261293523
 C         -0.9069468884        2.9707986923       -1.7023468709
 C         -1.4698090579        4.3558292508       -1.8029899793
 C         -0.4148847866        3.9033238128       -2.7665678811
 H         -0.6950968626        3.7069657138       -3.7902836452
 H          0.5824889172        4.3039204329       -2.6568666544
 H         -1.1877721843        5.0689079171       -1.0433522727
 H         -2.4793759882        4.4743744903       -2.1646157764
 H         -1.5334253423        2.1457035198       -2.0143056035
 O          2.6071836648        2.5760899028        0.4568081365
