  62
        -98.94783302
 C          1.0824655526        1.1911448725        0.0460657658
 C          1.5688629585        0.1946502742        0.9242566102
 C          2.4694502357       -0.8028394344        0.3323809267
 C          2.7579933966       -0.7308577555       -0.9799188661
 C          3.6845389949       -1.6631959890       -1.7043433197
 C          5.1253416641       -1.1336899107       -1.7022553247
 C          5.6231950410       -0.7065086745       -0.3214371473
 H          6.6590642086       -0.3802945285       -0.4361967110
 H          5.0473687109        0.1601691892        0.0110205207
 C          5.5480149888       -1.8055042316        0.7476135435
 H          6.4836358107       -1.8107238705        1.3106887527
 H          5.4521315529       -2.7810048872        0.2693892039
 C          4.4180072298       -1.6258784980        1.7627543853
 H          4.4543462484       -0.6143347556        2.1746090415
 H          4.5887502161       -2.3226703798        2.5876068288
 C          2.9996656684       -1.8803109044        1.2366388257
 H          2.9571210154       -2.8533189984        0.7416656647
 H          2.3266300747       -1.9051850906        2.0990083464
 H          5.7784561455       -1.9108733556       -2.1034759468
 H          5.1762959137       -0.2693844078       -2.3685018857
 H          3.6440788599       -2.6438904862       -1.2335588661
 H          3.3379496093       -1.7552946440       -2.7353906996
 O          2.2699987521        0.2383315394       -1.7947308875
 C          1.4149495666        1.2176681877       -1.3087370834
 O          1.0334253313        2.0373984657       -2.1658730523
 O          1.2575123177        0.1364521460        2.1447718570
 C          0.1129848074        2.2241781446        0.5826856705
 C         -1.2385382070        2.1222501595       -0.0856417696
 C         -2.1181261865        3.1982009768       -0.1429745760
 C         -3.3624549177        3.0555693664       -0.7310646638
 C         -3.7650018183        1.8428652250       -1.2612401104
 C         -2.8933547135        0.7612279407       -1.2098457190
 C         -1.6474407861        0.9099452107       -0.6212572889
 H         -0.9722208506        0.0694424429       -0.6151672679
 N         -3.2505696413       -0.4803254177       -1.7492988934
 S         -2.5841215449       -1.9016627561       -1.1911367124
 O         -1.2154337652       -2.0322895932       -1.6273929789
 O         -3.4955359149       -2.9218763262       -1.6655998800
 C         -2.6693704294       -1.7986326032        0.5871976793
 C         -3.9165588899       -1.7062371564        1.1741070684
 C         -4.0015085775       -1.5868148785        2.5513672227
 C         -2.8438142705       -1.5517528378        3.3145797507
 C         -1.5999147392       -1.6525535517        2.7118305699
 C         -1.5109687513       -1.7824702507        1.3353154306
 H         -0.5566571336       -1.8576527731        0.8366847165
 H         -0.6926989162       -1.6068101134        3.2930782725
 H         -2.9090133410       -1.4460241045        4.3859986109
 H         -4.9671439973       -1.5140602052        3.0251813284
 H         -4.7944980142       -1.7404822733        0.5499697894
 H         -4.2114408034       -0.5779476924       -2.0388273161
 H         -4.7348021229        1.7345072319       -1.7214384023
 H         -4.0320478008        3.9009651924       -0.7743500553
 H         -1.8238489595        4.1502844685        0.2676931358
 H         -0.0215143346        1.9709200625        1.6462070183
 C          0.7061297612        3.6170297110        0.4882173277
 C          0.4579150690        4.6302554952        1.5645331115
 C          1.8086624913        3.9966295679        1.4299545292
 H          2.6277482309        4.5908029388        1.0534715106
 H          2.1044496029        3.2619431496        2.1648368026
 H          0.3500824785        5.6663213578        1.2806148446
 H         -0.1539288849        4.3332226177        2.4029301648
 H          0.7829952196        3.9644481914       -0.5359337410
