  62
        -98.93583349
 C         -0.9939430352       -1.8182895242       -0.7624572561
 C         -0.2121054648       -2.4915291325        0.2047466396
 C          1.2570500308       -2.4035012204        0.0365766424
 C          1.7792134537       -1.7056448065       -0.9867698515
 C          3.2117979040       -1.4594018644       -1.4132083180
 C          4.3756883133       -1.8315023463       -0.4995579667
 C          4.4990254985       -0.9697320334        0.7574464308
 H          5.2661728526       -1.4060660993        1.4007143918
 H          4.8367971683        0.0263024514        0.4623926496
 C          3.2171794933       -0.7927115917        1.5665980528
 H          2.4571569088       -0.2926006738        0.9621364626
 H          3.4329298607       -0.1258753151        2.4066194020
 C          2.6164364501       -2.0721232399        2.1435592747
 H          3.3557112569       -2.5829998524        2.7647459698
 H          1.7836889784       -1.7726314759        2.7869514469
 C          2.0704083018       -3.0690991352        1.1094002677
 H          2.8695384020       -3.6660766893        0.6766517446
 H          1.3923405285       -3.7529092318        1.6290148294
 H          5.2886726086       -1.6912406423       -1.0842945210
 H          4.3286215299       -2.8849775049       -0.2395516275
 H          3.3318080642       -1.9940770767       -2.3617545566
 H          3.2700253861       -0.3921511457       -1.6486967535
 O          0.9818196960       -1.0967320838       -1.9136413492
 C         -0.3945222917       -1.1213731082       -1.8155326137
 O         -0.9816002426       -0.4978951565       -2.7220585013
 H         -1.2297742488        0.1199234316        0.8175049728
 C         -2.0648896205        0.5647603059        0.2976780637
 C         -2.8517212235       -0.2163120648       -0.5353900826
 C         -3.9217348296        0.3778998754       -1.1940586792
 C         -4.1902236470        1.7242264111       -1.0216545224
 C         -3.3801746534        2.5086849533       -0.2200920840
 C         -2.2989496212        1.9255841117        0.4332904576
 N         -1.4386568601        2.7064054535        1.2180790438
 S          0.1571216764        2.3507850580        1.5183669719
 O          0.2709666298        1.0796004450        2.1882416147
 O          0.6328916838        3.4967603795        2.2640401417
 C          1.0636796995        2.2936772052       -0.0250986350
 C          2.4373906061        2.3911508232        0.1021626453
 C          3.2287882470        2.3525730217       -1.0331107517
 C          2.6371975275        2.2128836887       -2.2802427879
 C          1.2605044845        2.1185789882       -2.3935504950
 C          0.4621861253        2.1622076705       -1.2593931331
 H         -0.6076075382        2.0696365285       -1.3521626309
 H          0.7906546295        1.9899590601       -3.3553465484
 H          3.2506379823        2.1743874886       -3.1668926178
 H          4.3008956342        2.4283761472       -0.9436013214
 H          2.8545863642        2.4997320375        1.0904144909
 H         -1.5985008000        3.7017520273        1.1824513395
 H         -3.5693706155        3.5654078239       -0.1105084063
 H         -5.0250478127        2.1753888812       -1.5357837568
 H         -4.5283014926       -0.2147178564       -1.8626149691
 C         -2.5112638107       -1.6744052127       -0.7330680473
 H         -2.8725425742       -1.9547933174       -1.7376144615
 C         -3.2212582279       -2.5704190672        0.2673858311
 C         -3.5754599971       -2.1122303253        1.6467088466
 C         -4.6564306768       -2.3319615093        0.6331298701
 H         -5.3016953482       -3.1896562292        0.7481454514
 H         -5.1466342139       -1.4588389189        0.2308733187
 H         -3.4582182540       -2.8177269002        2.4549571341
 H         -3.3283142669       -1.0974975388        1.9219463995
 H         -2.9123635934       -3.6048786206        0.1738806427
 O         -0.6757939589       -3.1585624327        1.1648174618
