  62
        -98.93177573
 C         -1.9082317740       -0.1719171489        0.9007114979
 C         -2.7580765390       -0.8288998236       -0.0195443756
 C         -4.1334542991       -0.2976514580       -0.1417368803
 C         -4.5041789157        0.7558670265        0.6059140680
 C         -5.8304984882        1.4725487617        0.6447655402
 C         -7.0920912881        0.5956054315        0.6463780969
 C         -7.8793649972        0.6591274519       -0.6637423563
 H         -8.9191326302        0.3936103523       -0.4596965783
 H         -7.8718189440        1.6901714381       -1.0236833797
 C         -7.3752856961       -0.2654939378       -1.7705043984
 H         -7.6162769091       -1.2996792547       -1.5149918626
 H         -7.9253897984       -0.0199246695       -2.6820099495
 C         -5.8762118400       -0.1777375602       -2.0632320057
 H         -5.5427434818        0.8592361400       -2.0400510712
 H         -5.7130773468       -0.5414209834       -3.0800195672
 C         -5.0148136900       -1.0285013591       -1.1179280451
 H         -5.6478331990       -1.7293069214       -0.5661874155
 H         -4.3254632745       -1.6440735483       -1.7041651086
 H         -6.8281538051       -0.4344008744        0.8808764304
 H         -7.7429182925        0.9518301961        1.4466473387
 H         -5.7977615737        2.0763997859        1.5546452409
 H         -5.8685930744        2.1750289137       -0.1917481087
 O         -3.6443042718        1.3681215773        1.4710141683
 C         -2.3453822085        0.9319098577        1.6359951305
 O         -1.6831872057        1.5912424532        2.4636033519
 H          1.7250720771        0.8819435519        1.7165088000
 C          1.5562750952        0.8042739691        0.6508225130
 C          0.4587873980        0.0963936663        0.1837124529
 C          0.2481620711        0.0206649182       -1.1896202915
 C          1.1129118704        0.6474629715       -2.0681140562
 C          2.2067491223        1.3536914503       -1.5983312895
 C          2.4284608460        1.4302490048       -0.2303052110
 N          3.5653065768        2.1164286489        0.2452106271
 S          5.0380820710        1.5115540678       -0.2893218885
 O          6.0156198776        1.9647222948        0.6736315880
 O          5.2513161227        1.9185993887       -1.6543937723
 C          4.8281234567       -0.2566897978       -0.1962505138
 C          4.9367811912       -0.8619749699        1.0402515819
 C          4.6738096994       -2.2177730422        1.1485999873
 C          4.2941343358       -2.9386346044        0.0265697353
 C          4.1928246973       -2.3168681035       -1.2078624498
 C          4.4615625221       -0.9623889402       -1.3244080881
 H          4.3969811742       -0.4437162067       -2.2665070774
 H          3.8982075581       -2.8806852935       -2.0782585536
 H          4.0725076502       -3.9899278155        0.1163092920
 H          4.7557572347       -2.7060182644        2.1064830232
 H          5.2350105371       -0.2668985616        1.8888883866
 H          3.5787487367        2.2160286969        1.2505003614
 H          2.8960064410        1.8416056745       -2.2686136932
 H          0.9349920932        0.5842507791       -3.1309577899
 H         -0.5968211096       -0.5407539745       -1.5576001800
 C         -0.4685344870       -0.5881418610        1.1539994672
 H         -0.2368119911       -0.2027169423        2.1594085682
 C         -0.2735539332       -2.0989797344        1.1912127276
 C          0.5680816886       -2.8516025877        0.2085659651
 C          1.0520054584       -2.6616235409        1.6122186878
 H          1.0660742555       -3.5095666068        2.2796425828
 H          1.8591460759       -1.9610147621        1.7672751801
 H          1.0598830506       -2.2985080967       -0.5758939431
 H          0.2214177698       -3.8268612154       -0.0962891603
 H         -1.1567500211       -2.6115753171        1.5567507334
 O         -2.4087049661       -1.8123191683       -0.7207111687
