  62
        -98.94191658
 C          1.2885769434        1.3792383614        0.7305594160
 C          1.8611933530        1.1149543599       -0.5383129786
 C          2.8029191438       -0.0147936386       -0.5929471882
 C          3.0146579482       -0.7565300707        0.5083563382
 C          3.9324066037       -1.9417895678        0.5816945492
 C          3.1959333783       -3.2502453226        0.2659693990
 C          2.3472771548       -3.1930989111       -1.0038348902
 H          1.9039173279       -4.1806601081       -1.1429494868
 H          1.5249336123       -2.4898443546       -0.8527823743
 C          3.1219653887       -2.8037687826       -2.2703320387
 H          4.1913631486       -2.9484495972       -2.1120096967
 H          2.8218389528       -3.4691798069       -3.0823361157
 C          2.8712169500       -1.3740763779       -2.7526552499
 H          1.7956339079       -1.1899676037       -2.8160891388
 H          3.2794011500       -1.2790140900       -3.7624906686
 C          3.4996634966       -0.2641390138       -1.9010616266
 H          4.5581313369       -0.4791343918       -1.7388355603
 H          3.4214430378        0.6700603273       -2.4650121159
 H          3.9360035073       -4.0475424458        0.1766259656
 H          2.5400859695       -3.4845282435        1.1064254954
 H          4.7536075368       -1.7967423481       -0.1179001269
 H          4.3373399592       -1.9981879532        1.5937129929
 O          2.3792476064       -0.5254617172        1.6862594195
 C          1.5042459303        0.5392873529        1.8255929180
 O          0.9835174685        0.6267845431        2.9561749059
 H         -1.3166837983        0.5346492556        0.4350100005
 C         -1.5074215123        1.3546946449       -0.2415554835
 C         -0.7337598484        2.5044980700       -0.1418173248
 C         -0.9754250311        3.5479208258       -1.0242284172
 C         -1.9693243796        3.4328826337       -1.9808939954
 C         -2.7529938168        2.2965141634       -2.0603385617
 C         -2.5191046133        1.2459254395       -1.1794320037
 N         -3.2848928146        0.0714276707       -1.2292505691
 S         -3.7132740220       -0.7144946319        0.1853353935
 O         -4.9177864544       -1.4399123479       -0.1598951786
 O         -3.8206994444        0.2052171845        1.2930480673
 C         -2.4113944734       -1.8958144183        0.4675420025
 C         -1.6185202694       -1.8039008666        1.5936461624
 C         -0.6413122714       -2.7635778054        1.8074878862
 C         -0.4827985637       -3.7997282271        0.9009718150
 C         -1.2844149971       -3.8767502452       -0.2283506331
 C         -2.2572486999       -2.9166809432       -0.4503752413
 H         -2.9082760624       -2.9473966293       -1.3081094812
 H         -1.1533491659       -4.6821205830       -0.9327848700
 H          0.2679471036       -4.5536805957        1.0777815100
 H         -0.0101055276       -2.6865929654        2.6792494206
 H         -1.7686643505       -0.9889940163        2.2859551385
 H         -4.0416218145        0.0836353414       -1.8972744850
 H         -3.5346761199        2.2156803821       -2.8005316113
 H         -2.1418965940        4.2452229316       -2.6707457295
 H         -0.3720138725        4.4395936267       -0.9794981165
 C          0.3186075960        2.5294234942        0.9392524727
 H         -0.1903055005        2.3011537454        1.8914087397
 C          0.9748675861        3.8892544651        1.1221929837
 C          2.3488870201        4.0072355912        1.7102653043
 C          2.1150037071        4.3640208098        0.2745745988
 H          2.1433154320        5.4080041752       -0.0021227450
 H          2.4811164272        3.6992386624       -0.4906687542
 H          2.5384908406        4.8012878864        2.4169328147
 H          2.8769489384        3.0906162404        1.9309763562
 H          0.2555334568        4.6409914356        1.4338928211
 O          1.6201670119        1.7849984561       -1.5746561939
