  62
        -98.93829311
 C         -2.0641009350       -1.0813786577        0.3122290745
 C         -2.1351341444       -0.1637269345       -0.7652741000
 C         -2.3845841516        1.2371269646       -0.3894079010
 C         -2.4797120860        1.5868602102        0.9043696786
 C         -2.6918376920        2.9784532756        1.4368256823
 C         -4.1600254999        3.4261270954        1.4550511976
 C         -4.7621986270        3.7419267721        0.0852872114
 H         -4.1126271638        4.4407889153       -0.4424397168
 H         -5.7127480080        4.2487596831        0.2627879040
 C         -5.0169593507        2.5099330699       -0.7941786228
 H         -6.0127124672        2.5785553634       -1.2377510080
 H         -5.0024007533        1.6108019699       -0.1739988967
 C         -4.0216448484        2.3329939922       -1.9411084324
 H         -4.1160987922        3.1658960962       -2.6413353171
 H         -4.2722417710        1.4130636476       -2.4752800438
 C         -2.5568679114        2.2349671980       -1.4948648922
 H         -2.1897229315        3.2128715980       -1.1827056343
 H         -1.9560261888        1.8941728804       -2.3421911230
 H         -4.2170759055        4.3273553718        2.0697449912
 H         -4.7536769690        2.6508482913        1.9446934216
 H         -2.0983465198        3.6845487959        0.8548834615
 H         -2.3171417353        2.9756609001        2.4627737000
 O         -2.3754624491        0.6806353684        1.9133211491
 C         -2.1610491992       -0.6581042826        1.6404560284
 O         -2.0891414556       -1.3803078243        2.6570460784
 O         -2.0086710522       -0.4676688129       -1.9790157616
 C         -1.7520934009       -2.5616525858        0.1524613606
 C         -0.2854342567       -2.7852460459        0.4274678103
 C          0.1503044184       -3.8547517706        1.2007059175
 C          1.4957843024       -4.0186288854        1.4792950128
 C          2.4264634171       -3.1070582730        1.0151902603
 C          1.9999135025       -2.0348417252        0.2393898367
 C          0.6555521865       -1.8939837478       -0.0673976781
 H          0.3431614197       -1.0569815033       -0.6746996061
 N          2.9093317026       -1.0825933979       -0.2489396346
 S          2.3938571240        0.5292539884       -0.2854476715
 O          1.6018932852        0.8247958756        0.8875710194
 O          1.7827882786        0.7912628507       -1.5636841596
 C          3.9691025722        1.3628734434       -0.1976792574
 C          4.4373148937        1.7967333632        1.0280665969
 C          5.6808593408        2.4057794417        1.0934557117
 C          6.4325763944        2.5656588329       -0.0609369303
 C          5.9491827925        2.1253243051       -1.2842224246
 C          4.7060952747        1.5169552825       -1.3569098246
 H          4.2839040245        1.1661340278       -2.2841286653
 H          6.5350526885        2.2535845255       -2.1799470070
 H          7.4002078820        3.0388325021       -0.0069610842
 H          6.0571698867        2.7518927669        2.0425435866
 H          3.8134682579        1.6568562603        1.8965396546
 H          3.8298238029       -1.1706432399        0.1602727403
 H          3.4730582098       -3.2181170229        1.2547396510
 H          1.8209714683       -4.8519703409        2.0832959852
 H         -0.5758318679       -4.5442294481        1.6056154924
 H         -2.3134689147       -3.0738392835        0.9520138777
 C         -2.2032578192       -3.1571959166       -1.1717418894
 C         -1.2586621579       -3.4677153326       -2.2894660258
 C         -1.8781520000       -4.5833146597       -1.5058142306
 H         -2.6388966230       -5.1861360502       -1.9779510815
 H         -1.2421156656       -5.1249139188       -0.8225073055
 H         -1.5979905923       -3.2796774274       -3.2964010933
 H         -0.2112933980       -3.2536607306       -2.1404818345
 H         -3.1865180340       -2.8014759851       -1.4599520439
