  62
        -98.93920711
 C          1.8150947402        0.7585865160       -0.5497611928
 C          0.9047170511        1.5294238278       -1.3102350821
 C          0.3669513349        2.7275324995       -0.6572608620
 C          0.7146845572        3.0020080093        0.6130785474
 C          0.2502309111        4.1815972909        1.4236404373
 C         -1.1222658186        3.9750087746        2.0787888192
 C         -2.3156700096        4.0762747970        1.1282822006
 H         -3.2119334786        4.1499119595        1.7476353117
 H         -2.2410523181        4.9977462565        0.5489363401
 C         -2.4723115037        2.8788848868        0.1806690915
 H         -1.9062599253        2.0298037857        0.5731844512
 H         -3.5210625045        2.5709686994        0.1561093630
 C         -2.0488495948        3.1553994150       -1.2619208992
 H         -2.6907424235        3.9313017464       -1.6859034588
 H         -2.2001422878        2.2435308251       -1.8432324085
 C         -0.5873189040        3.5925659714       -1.4273197413
 H         -0.3246887155        3.5100139102       -2.4852712616
 H         -0.4734237111        4.6326306813       -1.1208438720
 H         -1.1319117504        2.9970702348        2.5673619697
 H         -1.2342582858        4.7377776152        2.8532662289
 H          0.9915894824        4.3265505595        2.2124655363
 H          0.2271766925        5.0752378006        0.7987576169
 O          1.5745230862        2.2252768776        1.3202248967
 C          2.1415825427        1.0856404059        0.7673205266
 O          2.9105888722        0.4801241944        1.5361208759
 O          0.5583787189        1.2306306080       -2.4865303015
 C          2.3974412863       -0.5074328857       -1.1736800129
 C          2.1650311248       -1.6340670147       -0.1957861420
 C          3.0994208038       -2.4114793766        0.4739816772
 C          2.6926250927       -3.3345287051        1.4249617882
 C          1.3617114728       -3.4831198317        1.7614237800
 C          0.4128807038       -2.7156222797        1.0943721308
 C          0.8197027647       -1.8478477012        0.0991441998
 H          0.0762377954       -1.2637347297       -0.4196304096
 N         -0.9514871960       -2.8078851062        1.4053238926
 S         -1.9450469229       -1.4603520038        1.3003727631
 O         -1.2191697596       -0.2241291055        1.4695219715
 O         -2.9957388323       -1.7199568408        2.2634320946
 C         -2.6341299253       -1.5967888030       -0.3358172759
 C         -2.2939231643       -0.6957963544       -1.3230970569
 C         -2.8329962163       -0.8510185337       -2.5907717461
 C         -3.7022921692       -1.8992830418       -2.8477093644
 C         -4.0400809301       -2.7947136604       -1.8434325335
 C         -3.5017012881       -2.6451466710       -0.5761822443
 H         -3.7428630987       -3.3124187200        0.2343225264
 H         -4.7180604823       -3.6080549789       -2.0459742522
 H         -4.1177734707       -2.0167446613       -3.8360858738
 H         -2.5577973156       -0.1540746148       -3.3668427968
 H         -1.6103071921        0.1084195741       -1.0979662282
 H         -1.1657491064       -3.3710648453        2.2148936531
 H          1.0585006921       -4.1702218505        2.5367160807
 H          3.4373763319       -3.9252437866        1.9372256176
 H          4.1534482438       -2.2940694192        0.3010870858
 H          1.7516191447       -0.7064601946       -2.0459201020
 C          3.7696489264       -0.1941875994       -1.7477965948
 C          5.0438474975       -0.1461064921       -0.9642781465
 C          4.8491960236       -1.1982037422       -2.0172184557
 H          5.4074030927       -1.0961666540       -2.9362883564
 H          4.6895480315       -2.2214222816       -1.7202126049
 H          5.7297497292        0.6626873461       -1.1730886978
 H          5.0031933082       -0.4073581814        0.0806742037
 H          3.6594894273        0.5852037405       -2.4991760551
