  62
        -98.93597435
 C         -2.3351199238       -0.0884523552       -0.2654438471
 C         -3.3377962069        0.7640825587        0.2619619551
 C         -4.6088924754        0.1098352672        0.6108766721
 C         -4.7475968382       -1.2194952734        0.4689504178
 C         -5.9702398532       -2.0271100224        0.8110241941
 C         -7.0344786712       -2.0463895916       -0.2947839819
 C         -7.8086773013       -0.7400877154       -0.4759073809
 H         -8.6593701846       -0.9595266488       -1.1241847023
 H         -8.2071865616       -0.4188653317        0.4868688768
 C         -6.9919249157        0.3985337964       -1.1027888057
 H         -6.0998934117       -0.0134933638       -1.5806000538
 H         -7.5805296622        0.8800780988       -1.8870309146
 C         -6.5672649999        1.4898660004       -0.1200566214
 H         -7.4526218271        1.9999647636        0.2657931743
 H         -5.9650098249        2.2235465796       -0.6619324625
 C         -5.7391393755        0.9826308824        1.0676423289
 H         -5.3061711128        1.8468062044        1.5771182797
 H         -6.3765743233        0.4445918526        1.7686832376
 H         -6.5534586102       -2.3189298792       -1.2371108081
 H         -7.7481387536       -2.8352051700       -0.0460548861
 H         -5.6284506951       -3.0507946721        0.9780502582
 H         -6.4107192343       -1.6521587833        1.7352392517
 O         -3.7455526014       -2.0105146629       -0.0014553793
 C         -2.5365857134       -1.4651020160       -0.3970863460
 O         -1.7255844116       -2.3008942193       -0.8476777383
 O         -3.2026353944        1.9996465622        0.4459365281
 C         -0.9750778733        0.4097698771       -0.7236302066
 C          0.0216132322        0.4403386304        0.4061110953
 C         -0.2952354626        0.9875949909        1.6455182794
 C          0.6507164908        1.0308261115        2.6534106303
 C          1.9319553301        0.5534980364        2.4402321072
 C          2.2562987260       -0.0000007694        1.2073700418
 C          1.2969389076       -0.0660399722        0.2064965335
 H          1.5594136589       -0.5159580905       -0.7400228878
 N          3.5422049334       -0.5022464948        0.9548739625
 S          4.1753566232       -0.2741731276       -0.5956454267
 O          3.8245148394        1.0417965006       -1.0785632181
 O          3.7814095867       -1.3844991850       -1.4260885053
 C          5.9235466734       -0.3635660921       -0.2568195048
 C          6.6221560168        0.8041303451       -0.0132769605
 C          7.9747207813        0.7271274573        0.2792664580
 C          8.6014186373       -0.5092057543        0.3261358808
 C          7.8871143262       -1.6721524073        0.0786373826
 C          6.5345674017       -1.6025443169       -0.2154243238
 H          5.9404747618       -2.4772241858       -0.4236256595
 H          8.3784589896       -2.6311191424        0.1125609290
 H          9.6540954094       -0.5666688407        0.5537065607
 H          8.5335207205        1.6295268324        0.4681822166
 H          6.0954829658        1.7432123389       -0.0708073127
 H          4.2084874417       -0.2673685116        1.6777851897
 H          2.6731232728        0.6028276316        3.2234565996
 H          0.3918928623        1.4568512371        3.6111233159
 H         -1.2839715608        1.3899829326        1.8046051073
 H         -0.6197486519       -0.3423369218       -1.4476467946
 C         -1.0439394685        1.7401942992       -1.4631120642
 C         -0.5574139323        3.0341713330       -0.8917260093
 C          0.2090935729        2.3722484539       -1.9947883764
 H          0.1838332884        2.8126958919       -2.9804804415
 H          1.1546935201        1.9101193620       -1.7470131970
 H         -1.1285210320        3.9229947829       -1.1120461215
 H         -0.1330223573        3.0255377315        0.0996303283
 H         -1.9211720705        1.7985173068       -2.1003813411
