  62
        -98.93516309
 C         -1.6927850931       -0.9857960674       -0.7928815346
 C         -2.0075405006        0.1477363509       -0.0099218434
 C         -3.4424718926        0.4170822405        0.2102153987
 C         -4.3545004407       -0.3978845342       -0.3497269137
 C         -5.8586652849       -0.3306355113       -0.2665988505
 C         -6.4952532370        1.0575195501       -0.4361346112
 C         -7.0986033572        1.6109810779        0.8558785475
 H         -7.8703170140        2.3395273806        0.5973013735
 H         -7.5888388250        0.7934475133        1.3886507513
 C         -6.1070738188        2.3009842363        1.7911502736
 H         -5.8070840145        3.2571623952        1.3569648681
 H         -6.6308463748        2.5186313054        2.7249867347
 C         -4.8434170440        1.5003155247        2.1129562056
 H         -5.0861589822        0.4504420500        2.2728855708
 H         -4.4394748467        1.8797941898        3.0539681173
 C         -3.7441282973        1.6296851789        1.0480465059
 H         -3.9660027887        2.4701817401        0.3840912036
 H         -2.7919703557        1.8713895501        1.5307230938
 H         -5.7627665207        1.7539938464       -0.8409642264
 H         -7.2969747224        0.9686111469       -1.1710474137
 H         -6.2157092799       -1.0012681401       -1.0515075461
 H         -6.1736587704       -0.7693510169        0.6834780780
 O         -4.0006600149       -1.4827604767       -1.0987229196
 C         -2.6782676051       -1.8092065514       -1.3329504190
 O         -2.5120171981       -2.8370877734       -2.0211221618
 H          2.2063858536       -0.3568142515       -0.2652155622
 C          1.7329003475       -0.9651092104        0.4860467380
 C          0.4955740773       -1.5377241330        0.2401699941
 C         -0.0787021470       -2.3345833756        1.2276633746
 C          0.5627701673       -2.5354485270        2.4338763288
 C          1.7954308091       -1.9554561223        2.6785006637
 C          2.3822166106       -1.1666801336        1.6970740183
 N          3.6131366613       -0.5411676607        1.9280555182
 S          4.6981108771       -0.2591863829        0.6931805607
 O          4.7339151560       -1.3521530986       -0.2506244433
 O          5.9449660273        0.0279937108        1.3705951660
 C          4.1168588768        1.2228221512       -0.1045917551
 C          3.5381576901        2.2195921272        0.6552181194
 C          3.1144032622        3.3788608495        0.0255059009
 C          3.2817636361        3.5251881345       -1.3430219780
 C          3.8720841761        2.5183199345       -2.0908811081
 C          4.2952122493        1.3549844098       -1.4676305173
 H          4.7490604486        0.5414463555       -2.0114694141
 H          4.0011025542        2.6340201410       -3.1554649962
 H          2.9480260177        4.4279481397       -1.8300798540
 H          2.6505662243        4.1620104172        0.6033551322
 H          3.4146491787        2.0729145425        1.7151577658
 H          4.0652298107       -0.7705949770        2.8001288664
 H          2.2963511934       -2.1088048046        3.6222167340
 H          0.1019455302       -3.1516276691        3.1914552218
 H         -1.0412757088       -2.7899392707        1.0364284606
 C         -0.2417953891       -1.3394644734       -1.0618036740
 H         -0.2560604882       -2.3026586790       -1.5934248441
 C          0.3871442331       -0.2955659553       -1.9614032437
 C          1.5120644903       -0.6653180714       -2.8791461496
 C          0.1520462196       -0.3777204785       -3.4385946883
 H          0.0041529136        0.5388856604       -3.9892329971
 H         -0.4409276237       -1.2054476317       -3.8002294653
 H          2.2971315805        0.0567051743       -3.0448592238
 H          1.8544634858       -1.6892852462       -2.8655254309
 H          0.3984715410        0.6899982662       -1.5096993423
 O         -1.1338179016        0.9034450074        0.4896807593
