  62
        -98.94458840
 C         -2.6497637817       -1.3077676071        0.1162578069
 C         -2.5814562196       -0.2995447660       -0.8758600156
 C         -3.5879246078        0.7654755380       -0.7718559445
 C         -4.5106848979        0.7273739521        0.2060651677
 C         -5.6170637440        1.7237424097        0.4224229759
 C         -5.1923426705        2.9655877003        1.2179317349
 C         -4.2980849391        3.9481609482        0.4608007071
 H         -4.7611689193        4.1988495902       -0.4940255013
 H         -4.2549748759        4.8644810275        1.0526904533
 C         -2.8660303936        3.4476635488        0.2240144534
 H         -2.6536341440        2.6117616064        0.8950069763
 H         -2.1549743377        4.2395236266        0.4706030947
 C         -2.5742719239        3.0126603010       -1.2123155655
 H         -2.6486011818        3.8753247465       -1.8785734405
 H         -1.5449447926        2.6445490680       -1.2543272181
 C         -3.5003509299        1.9078270726       -1.7382185434
 H         -4.4912595304        2.3136195442       -1.9411088424
 H         -3.0800840836        1.5242769759       -2.6712206201
 H         -4.6850327875        2.6405251012        2.1291027263
 H         -6.1035133799        3.4906862167        1.5132420583
 H         -6.0278417453        2.0296505837       -0.5400426836
 H         -6.3961204204        1.2048435403        0.9849339010
 O         -4.5538518545       -0.2691779636        1.1293591237
 C         -3.6138518138       -1.2850901157        1.1275017674
 O         -3.7454730518       -2.1050575091        2.0579325447
 H          0.4095934423       -1.6516852834       -1.4808219586
 C          0.6279852843       -1.4934027218       -0.4368889039
 C         -0.2985063981       -1.8631537143        0.5247408660
 C         -0.0060215598       -1.6142279236        1.8630630825
 C          1.1861343568       -1.0160145745        2.2248585083
 C          2.1075281963       -0.6436160543        1.2607840083
 C          1.8163971724       -0.8704707834       -0.0769402841
 N          2.7378661431       -0.4877097453       -1.0659315832
 S          3.4445827103        1.0302812996       -0.9599375213
 O          2.5976097459        1.9751658762       -0.2694048653
 O          3.8171341351        1.3700266533       -2.3161727166
 C          4.9266165163        0.7307642814       -0.0172284641
 C          5.7716068540       -0.2778610988       -0.4375050404
 C          6.9342093158       -0.5183456316        0.2768515327
 C          7.2329042433        0.2512200586        1.3914646463
 C          6.3764088311        1.2623798341        1.7986889643
 C          5.2110356248        1.5073513162        1.0887077408
 H          4.5127401296        2.2790618140        1.3719049198
 H          6.6099448995        1.8599556013        2.6652292623
 H          8.1384097196        0.0618211789        1.9459929864
 H          7.6025696807       -1.3040248963       -0.0366484876
 H          5.5044643879       -0.8510560399       -1.3094357347
 H          2.4127401088       -0.6649767186       -2.0057675136
 H          3.0333267692       -0.1647127063        1.5349002424
 H          1.4008489069       -0.8335636154        3.2669478605
 H         -0.7358086624       -1.8837420495        2.6142586517
 C         -1.6421548331       -2.4466384802        0.1613699164
 H         -1.9633813217       -3.0988908368        0.9840608990
 C         -1.6380616292       -3.2502813211       -1.1220976103
 C         -0.9825991497       -4.5975109578       -1.1393240167
 C         -2.4754691870       -4.4891139900       -1.2099356429
 H         -2.9666570705       -4.7125266135       -2.1451867330
 H         -3.0513445226       -4.7652501825       -0.3386557017
 H         -0.5433382419       -4.9480121717       -0.2177135165
 H         -0.4467985822       -4.8998153303       -2.0260705899
 H         -1.5693195879       -2.6396584051       -2.0135193719
 O         -1.7390557395       -0.2812006446       -1.8120920267
