  62
        -98.93577468
 C         -2.3952514568       -0.6773634506        0.2170778465
 C         -2.5853945403        0.7284997665        0.1968071282
 C         -3.8532636052        1.2126777322       -0.3639101087
 C         -4.7410431597        0.3205940395       -0.8391012267
 C         -6.0935661102        0.6632268813       -1.3920373572
 C         -7.1653177801        0.6377138571       -0.2934342337
 C         -6.7819466551        1.4228133680        0.9609082742
 H         -7.6242973629        1.3619933941        1.6533696633
 H         -5.9332781808        0.9323376737        1.4433342474
 C         -6.4351474776        2.8962916160        0.7059509191
 H         -6.8232787227        3.2060674568       -0.2649342557
 H         -6.9292379852        3.5084577434        1.4633257250
 C         -4.9412966250        3.2187616444        0.7796592421
 H         -4.5265154062        2.8272969952        1.7121628827
 H         -4.8285286020        4.3060267569        0.8036532817
 C         -4.0862532223        2.6972597072       -0.3824677079
 H         -4.5289216280        3.0055369027       -1.3319964950
 H         -3.0964829159        3.1562539442       -0.2997789742
 H         -8.0926039315        1.0386206965       -0.7064870936
 H         -7.3415871896       -0.4013307061       -0.0061249242
 H         -6.0523132922        1.6485953719       -1.8519871439
 H         -6.3497726801       -0.0742810074       -2.1544011860
 O         -4.5190645942       -1.0160005077       -0.8242775596
 C         -3.3514450379       -1.5565990221       -0.2950863007
 O         -3.3117037260       -2.7980514800       -0.3530459066
 O         -1.7302846240        1.5442194047        0.6398112085
 C         -1.0970866405       -1.1786571808        0.8226921997
 C         -0.0208150409       -1.3533248931       -0.2193199075
 C         -0.2747140177       -2.0004851144       -1.4243533911
 C          0.7333447215       -2.1608480012       -2.3573537012
 C          2.0079659169       -1.6853321943       -2.1071535273
 C          2.2761772246       -1.0456208006       -0.9017496939
 C          1.2595493337       -0.8787480441        0.0289028530
 H          1.4721942225       -0.3570133786        0.9497813152
 N          3.5801324853       -0.6134799114       -0.6091458837
 S          3.8397569707        0.7553744402        0.3418657673
 O          3.5413363543        0.4321279084        1.7139509739
 O          3.1495201297        1.8948748505       -0.2200631633
 C          5.6017722182        0.9302427568        0.1352758568
 C          6.0962787900        1.8449836545       -0.7748345730
 C          7.4682039508        1.9449057314       -0.9466138569
 C          8.3170068404        1.1310785776       -0.2116318846
 C          7.8056905791        0.2184732741        0.6993558640
 C          6.4354130427        0.1143992973        0.8768689852
 H          5.9927652330       -0.5729959304        1.5786211661
 H          8.4689079267       -0.4105427574        1.2709020137
 H          9.3840155098        1.2105266914       -0.3474843867
 H          7.8687288859        2.6557728218       -1.6512671578
 H          5.3986575562        2.4624321238       -1.3177715847
 H          4.1775274462       -0.6041240038       -1.4249845419
 H          2.7924615616       -1.8125439106       -2.8375445642
 H          0.5229356980       -2.6612091680       -3.2906736222
 H         -1.2655627981       -2.3827591876       -1.6172030272
 H         -0.7672874374       -0.3668868101        1.4922084675
 C         -1.2783107118       -2.4250567293        1.6799800535
 C         -0.7724483617       -3.7771115651        1.2867814699
 C         -0.1020447062       -3.0234596360        2.3934237990
 H         -0.2340258529       -3.3643836543        3.4091929878
 H          0.8692968766       -2.5949677065        2.1943018032
 H         -1.3864708687       -4.6297953131        1.5322110257
 H         -0.2547192347       -3.8718612087        0.3455615279
 H         -2.2173048897       -2.4045875826        2.2243540236
