  62
        -98.94528794
 C          1.7621854022        0.4540335391        0.8369902688
 C          2.0631842179       -0.0953668966       -0.4348653532
 C          2.0977485698       -1.5655654672       -0.5075491855
 C          1.7937869388       -2.2918916750        0.5817217703
 C          1.7802457934       -3.7917542176        0.6457106366
 C          0.3954613571       -4.3695196592        0.3263744228
 C         -0.2281173710       -3.8232127259       -0.9581365380
 H         -1.1734520465       -4.3497558329       -1.1114019191
 H         -0.4744672036       -2.7663025907       -0.8338032320
 C          0.6482085839       -3.9719250267       -2.2090510611
 H          1.4158777077       -4.7296270920       -2.0433037384
 H          0.0205105379       -4.3180986070       -3.0329902477
 C          1.3030355241       -2.6668571154       -2.6673700680
 H          0.5491593216       -1.8749704259       -2.6897533288
 H          1.6670566756       -2.8066712646       -3.6892814158
 C          2.4873917437       -2.1814263261       -1.8212168526
 H          2.9938738835       -1.3912944553       -2.3836641193
 H          3.1932960389       -3.0018809771       -1.6692657115
 H         -0.2777414988       -4.1442125931        1.1569437647
 H          0.4876213533       -5.4549432516        0.2508619882
 H          2.5160176796       -4.1819437605       -0.0551203949
 H          2.0621199620       -4.0910959141        1.6571492995
 O          1.4370176299       -1.7301792045        1.7659842319
 C          1.4018508730       -0.3521854713        1.9183993981
 O          1.0345574969        0.0244538049        3.0492370932
 O          2.3168601147        0.5922865611       -1.4569642189
 C          1.6713153871        1.9560380186        1.0600067049
 C          0.8237211695        2.5564574195       -0.0341582803
 C          1.2184453995        3.6002178442       -0.8588047143
 C          0.3762368014        4.0488842049       -1.8623427304
 C         -0.8544713168        3.4566451008       -2.0785003443
 C         -1.2590448524        2.4123996133       -1.2541421796
 C         -0.4348090355        1.9992437370       -0.2231582630
 H         -0.7515892834        1.1930670275        0.4222581206
 N         -2.4948239353        1.7704180795       -1.4317919498
 S         -2.5903546261        0.1155460325       -1.1811759284
 O         -1.3576909821       -0.5569187376       -1.5111195310
 O         -3.7584749227       -0.2913467331       -1.9353646583
 C         -2.9526150970       -0.0420755614        0.5543835402
 C         -2.1608172917       -0.8413654910        1.3538326872
 C         -2.4580776994       -0.9513110040        2.7025247342
 C         -3.5444023612       -0.2665173341        3.2245596110
 C         -4.3373168047        0.5255881692        2.4073478610
 C         -4.0409784613        0.6418069272        1.0590232948
 H         -4.6310664243        1.2468425386        0.3911773880
 H         -5.1813708130        1.0550985751        2.8189780026
 H         -3.7700461389       -0.3511424708        4.2758371533
 H         -1.8278730740       -1.5552874338        3.3359805460
 H         -1.3147604722       -1.3492908858        0.9158571582
 H         -3.0083801862        2.0554229434       -2.2531264841
 H         -1.4937951074        3.7887249935       -2.8824777848
 H          0.6941891399        4.8580122324       -2.5025341585
 H          2.1931290307        4.0435171112       -0.7372265467
 H          1.1161899707        2.0637487553        2.0071425966
 C          3.0053953765        2.6572430468        1.2620788686
 C          4.1974243836        1.9125099138        1.7832685096
 C          4.1879130155        2.4191804518        0.3737919834
 H          4.8205972843        3.2603121267        0.1297681767
 H          4.0730947809        1.7102576110       -0.4301509420
 H          4.8337300351        2.4022869717        2.5050925495
 H          4.0903220311        0.8493213500        1.9442960083
 H          2.8750867565        3.6688179300        1.6345643989
