  62
        -98.93647335
 C          1.8167671090        0.2688250847       -0.3537661475
 C          2.8699988655        1.0871821709        0.1129980855
 C          4.2142945263        0.4824342478        0.1489870371
 C          4.3610855359       -0.8003179068       -0.2287629394
 C          5.6191154997       -1.6299443328       -0.2826183965
 C          6.5700199144       -1.5188797200        0.9192699355
 C          7.8736970435       -0.7863296626        0.5974171604
 H          8.6391418052       -1.1070270035        1.3076079604
 H          8.2058662687       -1.0894938578       -0.3977014205
 C          7.7947602343        0.7380390478        0.6612029142
 H          8.7374563548        1.1338009723        0.2759583590
 H          7.7131167399        1.0520043654        1.7040991034
 C          6.6419114489        1.3677614456       -0.1233125112
 H          6.5125670256        0.8663738969       -1.0817605497
 H          6.9131036438        2.4032417941       -0.3399249122
 C          5.3116623472        1.3848370990        0.6443791233
 H          5.4896964899        1.1750255798        1.7030798747
 H          4.8792996802        2.3895669533        0.6068905413
 H          6.8228052658       -2.5314746265        1.2378868378
 H          6.0601277952       -1.0373179583        1.7521417444
 H          6.1554304561       -1.3863876934       -1.2031693449
 H          5.2731288992       -2.6606488306       -0.3886078411
 O          3.3119758382       -1.5559250276       -0.6646255510
 C          2.0245652012       -1.0527111893       -0.7448461454
 O          1.1804890306       -1.8653531094       -1.1668309052
 O          2.6967820682        2.2789694997        0.4867262396
 C          0.4142533632        0.8473007405       -0.4264891784
 C         -0.5118700403        0.0338583112        0.4420807914
 C         -0.2048201708       -0.0967815906        1.7952837819
 C         -0.9955613537       -0.8606758956        2.6297884534
 C         -2.1185331520       -1.5024961237        2.1358913361
 C         -2.4378699186       -1.3747840853        0.7903917295
 C         -1.6405285471       -0.6033570231       -0.0465122664
 H         -1.9045052044       -0.5395825011       -1.0881753615
 N         -3.5626031737       -2.0289690993        0.2617811670
 S         -4.6143499220       -1.2156238114       -0.7503775868
 O         -5.8087813610       -2.0312267824       -0.7609270918
 O         -3.9995018397       -0.9694196817       -2.0289776349
 C         -4.9343734464        0.3209928185        0.0958367794
 C         -5.8430434796        0.3164869526        1.1364955887
 C         -6.0517684342        1.4852681774        1.8498538106
 C         -5.3446160999        2.6311789942        1.5179585847
 C         -4.4371027352        2.6191879919        0.4703171274
 C         -4.2264778983        1.4537329057       -0.2499156828
 H         -3.5320070169        1.4067814542       -1.0721075529
 H         -3.8899133594        3.5116745959        0.2115451783
 H         -5.5032346526        3.5400857110        2.0766158673
 H         -6.7608620682        1.4994179272        2.6618072179
 H         -6.3793759534       -0.5926584155        1.3551901000
 H         -4.0725412873       -2.5852518270        0.9323625305
 H         -2.7343155720       -2.1079385084        2.7835489528
 H         -0.7395176802       -0.9577584622        3.6740141355
 H          0.6748979683        0.4020429675        2.1785436695
 H          0.4947055834        1.8561379792        0.0041600869
 C         -0.0338452347        0.9679359471       -1.8668103341
 C         -1.0161722995        2.0279429772       -2.2626090475
 C          0.4206364950        2.1471269617       -2.6717531400
 H          0.6795431639        1.9939645586       -3.7086887741
 H          1.0353596401        2.8811957943       -2.1715778514
 H         -1.7501438702        1.7926709450       -3.0194837428
 H         -1.3704739193        2.6912435973       -1.4878814383
 H         -0.0816750248        0.0112170753       -2.3753903861
