  62
        -98.93507101
 C         -2.1343188003       -1.1538367604        0.3463195799
 C         -2.8482171605       -0.3471344602        1.2712012796
 C         -4.1878139005        0.0864072196        0.8649629192
 C         -4.6693390503       -0.2818974808       -0.3357527707
 C         -6.0279251702        0.0545376189       -0.8878804910
 C         -6.1078743102        1.4345368187       -1.5546434415
 C         -6.0791202104        2.6239667090       -0.5939601019
 H         -6.3601184504        3.5078588888       -1.1700677622
 H         -6.8364301305        2.4847851293        0.1782202680
 C         -4.7137355605        2.8764876293        0.0607210982
 H         -3.9372092604        2.3512298792       -0.5005850415
 H         -4.4771177806        3.9418473693        0.0106774379
 C         -4.6281982107        2.4622811298        1.5298498484
 H         -3.6101314508        2.6517817000        1.8798338584
 H         -5.3078851008        3.0771779100        2.1240676981
 C         -4.9517134007        0.9852548699        1.7898857588
 H         -4.6521619708        0.7436309303        2.8126729589
 H         -6.0229808106        0.8120211998        1.6891642787
 H         -5.2877646601        1.5249669885       -2.2707442814
 H         -7.0444850001        1.4713243285       -2.1157666317
 H         -6.2539094601       -0.7043700213       -1.6400049408
 H         -6.7723015103       -0.0105893408       -0.0937246611
 O         -3.9544380101       -1.0441911211       -1.2004878304
 C         -2.6700423701       -1.4876527609       -0.8994689900
 O         -2.1536398800       -2.1505727212       -1.8142561897
 O         -2.3862268307       -0.0092018998        2.3954619295
 C         -0.7441202804       -1.6087472502        0.7745708603
 C          0.3115886797       -0.9963082605       -0.1123275398
 C          0.7131590099       -1.4993101909       -1.3449380195
 C          1.6660289000       -0.8365993011       -2.1001221196
 C          2.2425453199        0.3379129191       -1.6537522899
 C          1.8492050197        0.8545865295       -0.4261283102
 C          0.9002280896        0.1841730197        0.3320247099
 H          0.5931614294        0.5997596700        1.2831614797
 N          2.4271091795        2.0454664597        0.0433836295
 S          4.0819535196        2.2352963997       -0.1132423903
 O          4.4590288094        3.1460043801        0.9447493895
 O          4.3978981897        2.6625964893       -1.4535032204
 C          4.7665996596        0.6141093799        0.1822243203
 C          4.5273101595        0.0209154703        1.4061754905
 C          5.0200380395       -1.2519532496        1.6420616310
 C          5.7405413697       -1.9070093899        0.6548059813
 C          5.9780043998       -1.2955614903       -0.5661388388
 C          5.4852586098       -0.0231067904       -0.8083937693
 H          5.6442063899        0.4871468193       -1.7444150995
 H          6.5406736099       -1.8061800505       -1.3309314686
 H          6.1192610497       -2.8997280898        0.8400123717
 H          4.8366609494       -1.7292647193        2.5912871211
 H          3.9689527493        0.5589481005        2.1554203003
 H          2.1047141794        2.3303364100        0.9561688194
 H          2.9734085999        0.8695476490       -2.2410938300
 H          1.9586028102       -1.2416876814       -3.0569080894
 H          0.2536596400       -2.3873097010       -1.7401906893
 H         -0.6224788105       -1.1339725199        1.7607220902
 C         -0.6732377703       -3.1049865001        1.0579221008
 C         -0.7270272901       -4.2082347805        0.0456823612
 C          0.5453534597       -3.9361589102        0.7884209213
 H          0.8591106697       -4.6432639999        1.5416496215
 H          1.3575036098       -3.4733469903        0.2496747812
 H         -1.2947821801       -5.0895961304        0.3101952414
 H         -0.8073122300       -3.9529825208       -0.9968825989
 H         -1.1974778805       -3.3217768698        1.9858188408
