  62
        -98.94233632
 C         -1.8784589336        0.5877229847       -0.0877948373
 C         -2.9621404744        0.5242131088       -1.0035632520
 C         -4.0557686496       -0.3903759839       -0.6613785141
 C         -3.9765687832       -1.1311334556        0.4583428675
 C         -4.9933999617       -2.1329293947        0.9339910874
 C         -6.1584460786       -1.5167882881        1.7204934538
 C         -7.1620660518       -0.7245585031        0.8817614476
 H         -7.4956869160       -1.3363372036        0.0430030420
 H         -8.0318312391       -0.5380633202        1.5148492951
 C         -6.6318643348        0.6194019434        0.3628925019
 H         -7.3806081272        1.3963380287        0.5329393179
 H         -5.7421602853        0.9030962825        0.9298299489
 C         -6.2937564324        0.6348274722       -1.1279483845
 H         -7.2042590291        0.4829154283       -1.7118014988
 H         -5.8936506253        1.6205626685       -1.3784695260
 C         -5.2604307488       -0.4169129348       -1.5526716826
 H         -5.7115283756       -1.4091181856       -1.5529385497
 H         -4.9286178822       -0.1825624030       -2.5670934311
 H         -5.7501627838       -0.8740668065        2.5039104250
 H         -6.6915046356       -2.3364773099        2.2077929709
 H         -5.3828836810       -2.6912193993        0.0820464487
 H         -4.4632356109       -2.8262525122        1.5906943925
 O         -2.9131010643       -1.0631634711        1.2992784981
 C         -1.8482588581       -0.1991308597        1.0642087273
 O         -0.9686709985       -0.2526780158        1.9445093634
 H          0.5888368203       -0.6459365116        0.3667800620
 C          0.9789424475       -0.2459637366       -0.5574985565
 C          0.3913694968        0.8828239660       -1.1127627587
 C          0.9100103292        1.3841176637       -2.3008695208
 C          1.9863641943        0.7686131648       -2.9168154140
 C          2.5704811008       -0.3542630851       -2.3587820816
 C          2.0607909897       -0.8615645214       -1.1702832993
 N          2.6555468244       -1.9970578115       -0.5818403439
 S          4.2848787873       -1.8757344346       -0.2043825460
 O          5.0518654806       -1.9056793210       -1.4242276379
 O          4.5441151490       -2.9385965171        0.7393287840
 C          4.4494799884       -0.2853160734        0.5834857861
 C          4.1777323608       -0.1919130016        1.9340434716
 C          4.2323423249        1.0504423283        2.5446775936
 C          4.5405817995        2.1747688298        1.7940845599
 C          4.8084150509        2.0643827852        0.4385563483
 C          4.7650341651        0.8233715474       -0.1764582631
 H          4.9755591171        0.6951181490       -1.2251554471
 H          5.0473257511        2.9405528753       -0.1420685207
 H          4.5697831021        3.1423603892        2.2689951062
 H          4.0244210657        1.1375920006        3.5989205062
 H          3.9394349406       -1.0896252738        2.4821211906
 H          2.1460529544       -2.3286600070        0.2254285201
 H          3.4128839831       -0.8440833927       -2.8199416974
 H          2.3743627858        1.1660823484       -3.8421648007
 H          0.4551451681        2.2555386152       -2.7483947776
 C         -0.7645668839        1.5635318639       -0.4262930430
 H         -1.2184551126        2.2520302890       -1.1564556328
 C         -0.3254032193        2.4031337799        0.7668278072
 C          0.9699664349        2.2144760147        1.4909473205
 C          0.7742700571        3.4127828922        0.6150582928
 H          0.6541044970        4.3810663069        1.0760604854
 H          1.3028569796        3.4300023155       -0.3258953970
 H          0.9642116813        2.3416756855        2.5623948687
 H          1.6398354412        1.4400255118        1.1532382689
 H         -1.1739122319        2.6967041570        1.3775378393
 O         -3.0119481327        1.2084753446       -2.0601440045
