  62
        -98.94525318
 C         -1.4658128108       -1.2725670380       -0.4161105612
 C         -2.7993088682       -1.3793254079        0.0594741705
 C         -3.7729419023       -0.4431553985       -0.5096890138
 C         -3.3766045245        0.4429283658       -1.4407222586
 C         -4.2504044146        1.4568602461       -2.1282448201
 C         -4.4484976866        2.7519582593       -1.3288278041
 C         -5.3601838923        2.6291832936       -0.1070905984
 H         -5.5876858894        3.6439407477        0.2255081293
 H         -6.3012894134        2.1644430617       -0.4029212498
 C         -4.7460605744        1.8522875677        1.0660485611
 H         -4.9186650839        2.3999263297        1.9954416171
 H         -3.6630557185        1.7863683495        0.9329770847
 C         -5.3093792022        0.4440510217        1.2584803183
 H         -4.7757168045       -0.0265271322        2.0881405913
 H         -6.3659217118        0.5063707348        1.5284098809
 C         -5.1710442292       -0.4645831209        0.0301974831
 H         -5.3934317819       -1.4898831417        0.3356653462
 H         -5.8810885275       -0.1663837277       -0.7408253680
 H         -3.4688021705        3.1233437936       -1.0173892150
 H         -4.8829954302        3.4903639330       -2.0068555221
 H         -5.2212455241        1.0132773308       -2.3514535225
 H         -3.7560683911        1.7061502494       -3.0696671046
 O         -2.0976431434        0.4986879751       -1.8921393565
 C         -1.1062903010       -0.3306276603       -1.3806995326
 O          0.0112068179       -0.1331950668       -1.8934813236
 O         -3.1610980924       -2.2293111181        0.9166209262
 C         -0.4452032227       -2.2043310240        0.2194335930
 C          0.2229220763       -1.4806838204        1.3654571239
 C         -0.1709293363       -1.7378567053        2.6742572684
 C          0.4063517928       -1.0545721534        3.7290496056
 C          1.3817204580       -0.1025731248        3.4969309553
 C          1.7806565445        0.1663203722        2.1911159992
 C          1.2070718041       -0.5285864363        1.1357887034
 H          1.4972301983       -0.2960606152        0.1255234519
 N          2.7859641923        1.1079777195        1.9433161373
 S          2.8323203534        2.0207986875        0.5397861657
 O          3.6636928466        3.1534689039        0.8971660519
 O          1.5079429695        2.3391002306        0.0621486925
 C          3.7412527987        0.9935610745       -0.5940733640
 C          3.1619448818        0.5263436171       -1.7555350338
 C          3.9158070394       -0.2788714654       -2.5971132563
 C          5.2239141375       -0.5961905172       -2.2678769794
 C          5.7921666182       -0.1119718345       -1.0986697482
 C          5.0458964771        0.6910254577       -0.2528933377
 H          5.4496689972        1.0953720714        0.6602826032
 H          6.8103231224       -0.3598484650       -0.8453238831
 H          5.8025016317       -1.2247546448       -2.9265299130
 H          3.4681625090       -0.6561764875       -3.5030008056
 H          2.1340211833        0.7703155464       -1.9764760252
 H          3.0916550597        1.6322594883        2.7495033145
 H          1.8307643419        0.4357488053        4.3178563027
 H          0.0904898061       -1.2605702105        4.7406382048
 H         -0.9506436509       -2.4634398498        2.8549427493
 H         -1.0383659284       -3.0235855884        0.6489318360
 C          0.5564203347       -2.7961640010       -0.7492644632
 C          1.3275961091       -4.0120221462       -0.3335744092
 C          0.2656201308       -4.1210960873       -1.3852445711
 H          0.5654729522       -4.2750603656       -2.4108069011
 H         -0.6626323474       -4.6088827355       -1.1251205912
 H          2.3606474628       -4.0925606725       -0.6343061027
 H          1.1183144928       -4.4260148850        0.6412375513
 H          1.0663946849       -2.0607807531       -1.3563700344
