  62
        -98.94563914
 C         -2.0724727238       -1.0513977797       -0.4508168440
 C         -1.5197666973        0.0960518016       -1.0692853563
 C         -2.2460769488        1.3553154284       -0.8563143312
 C         -3.3565705004        1.3750406473       -0.0988167633
 C         -4.2381250392        2.5667324725        0.1616614340
 C         -3.7569264714        3.4762628350        1.2995339103
 C         -2.5268537478        4.3239379248        0.9745544778
 H         -2.6916034196        4.8596575076        0.0390307155
 H         -2.4320182891        5.0701074409        1.7659571188
 C         -1.2180409261        3.5273229799        0.8904164684
 H         -1.3395263339        2.5548747690        1.3738883950
 H         -0.4321957390        4.0485062676        1.4426882738
 C         -0.6917378789        3.2987790653       -0.5257899861
 H          0.2023198700        2.6765566518       -0.4389563709
 H         -0.4009651477        4.2536675282       -0.9705346925
 C         -1.6815838931        2.6023089855       -1.4684466985
 H         -2.4847680463        3.2879597666       -1.7394770571
 H         -1.1456183652        2.3142439478       -2.3762005709
 H         -4.5810075013        4.1484360371        1.5502212416
 H         -3.5504199867        2.8599002197        2.1776761405
 H         -4.3383451592        3.1517951113       -0.7532660522
 H         -5.2198619894        2.1703083866        0.4303656241
 O         -3.8413367740        0.2585215228        0.5072681717
 C         -3.2095639809       -0.9634088761        0.3583461012
 O         -3.7614179274       -1.8977383636        0.9761333787
 O         -0.4873036940        0.0948751331       -1.7907124799
 C         -1.4819228147       -2.4486568722       -0.5744749399
 C         -0.3890891066       -2.6609953956        0.4465345014
 C         -0.4724077744       -3.6968457450        1.3691019682
 C          0.5190484722       -3.8731185246        2.3177764272
 C          1.5934317740       -3.0051708469        2.3782359239
 C          1.6853730715       -1.9626772600        1.4612274018
 C          0.7114224019       -1.8161937794        0.4853268289
 H          0.7888554117       -1.0119803574       -0.2255931751
 N          2.7630333494       -1.0668444917        1.5101643323
 S          2.5453087477        0.5918322336        1.3169902286
 O          3.3577406441        1.1915861888        2.3586547072
 O          1.1484398933        0.9430992512        1.3197838401
 C          3.3256943615        0.9281798045       -0.2495131281
 C          4.6931527882        1.1334609148       -0.2407291197
 C          5.3472865710        1.3786049923       -1.4361212617
 C          4.6264972384        1.4135956435       -2.6205678013
 C          3.2565542259        1.2062250814       -2.6131726073
 C          2.5946414867        0.9591375722       -1.4191736491
 H          1.5280938775        0.7939566676       -1.4014267664
 H          2.6899265598        1.2317859548       -3.5304012754
 H          5.1334545096        1.6050209061       -3.5532741144
 H          6.4129764354        1.5419091862       -1.4415230691
 H          5.2107221406        1.1124757556        0.7040910202
 H          3.4093519780       -1.2453820117        2.2653264634
 H          2.3555641680       -3.1264673573        3.1336144887
 H          0.4455925440       -4.6823170326        3.0286895572
 H         -1.3299554579       -4.3535634841        1.3513432722
 H         -2.3023724102       -3.1370653176       -0.3279241724
 C         -0.9867394660       -2.7790489774       -1.9690714696
 C         -0.9172118283       -4.2139945722       -2.3931352321
 C         -1.9535691279       -3.3065921060       -2.9840519380
 H         -1.8441132532       -2.9919538778       -4.0108416607
 H         -2.9810569360       -3.4354193540       -2.6751029349
 H         -0.0928237205       -4.5267040046       -3.0151494666
 H         -1.2439912662       -4.9622130295       -1.6868315803
 H         -0.2126702017       -2.1107379616       -2.3207370778
