  62
        -98.93551864
 C          2.3825179067        1.4085659509        0.0138391596
 C          3.0937348875        0.7032179137        1.0171118453
 C          3.9661554799       -0.3993024880        0.5791507521
 C          4.0349449944       -0.7011566938       -0.7304453819
 C          4.8538266775       -1.7327404830       -1.4780112913
 C          5.5696398045       -2.8524711674       -0.7276751862
 C          4.6428823223       -3.8806727221       -0.0792307491
 H          4.1636966478       -4.4636846531       -0.8699388019
 H          5.2527269830       -4.5644698575        0.5150647274
 C          3.5353456836       -3.3096903932        0.8032445277
 H          2.8606487990       -2.6974391263        0.2001864497
 H          2.9454188776       -4.1479338808        1.1844864111
 C          4.0096211006       -2.4925516345        2.0034057260
 H          4.7028851824       -3.0871497064        2.6014948707
 H          3.1324417299       -2.2782109596        2.6201168017
 C          4.6788421105       -1.1490551734        1.6675008331
 H          4.6285596294       -0.5158707007        2.5580415982
 H          5.7289777173       -1.2818681060        1.4188922779
 H          6.1809606981       -3.3797453920       -1.4650783906
 H          6.2521585828       -2.4360665977        0.0072102621
 H          4.1756475174       -2.1727410523       -2.2164272390
 H          5.5989812395       -1.1642290312       -2.0455331991
 O          3.3243036325       -0.0017243941       -1.6614894962
 C          2.4802905688        1.0484486049       -1.3286316227
 O          1.9009644138        1.5470918781       -2.3128502308
 H         -0.0996213826        1.2644969565       -1.2733404217
 C         -0.5898750117        1.4077458781       -0.3209968939
 C          0.0852274335        2.0680882937        0.6972531257
 C         -0.5560863102        2.2360063059        1.9182959889
 C         -1.8402128805        1.7556115198        2.1109784189
 C         -2.5091668444        1.1004322366        1.0926450019
 C         -1.8746169755        0.9234842241       -0.1300813841
 N         -2.5458113601        0.2511224748       -1.1727937461
 S         -2.9918523470       -1.3395856058       -0.8502001626
 O         -2.1057817555       -1.9490636784        0.1160430932
 O         -3.0790722109       -1.9859856304       -2.1415942174
 C         -4.6287047543       -1.1819668876       -0.1680676205
 C         -4.9026842841       -1.6765936886        1.0918589497
 C         -6.1860542698       -1.5424221991        1.5990326923
 C         -7.1661973605       -0.9199012768        0.8412743227
 C         -6.8748335716       -0.4305541701       -0.4236116304
 C         -5.5945924160       -0.5623849100       -0.9370380398
 H         -5.3256947983       -0.2000926950       -1.9152451550
 H         -7.6396783335        0.0527856241       -1.0097918701
 H         -8.1633059334       -0.8153908109        1.2389231126
 H         -6.4144231319       -1.9224091071        2.5818398870
 H         -4.1059939261       -2.1467884620        1.6459722541
 H         -2.0384977775        0.2877616080       -2.0467116889
 H         -3.5081250998        0.7222319204        1.2368668907
 H         -2.3250542125        1.8911014806        3.0655683146
 H         -0.0336729129        2.7298135529        2.7244747667
 C          1.4965169442        2.5511509323        0.4811610721
 H          1.9034258278        2.8304228805        1.4657924162
 C          1.5851153229        3.7807051392       -0.4128321118
 C          0.4498866661        4.2928229593       -1.2431313477
 C          0.8745217562        5.0418578845       -0.0181671497
 H          1.3871341053        5.9844276471       -0.1349799068
 H          0.2257375218        4.9929273296        0.8433838713
 H          0.6883014078        4.6997794037       -2.2140532122
 H         -0.4880514853        3.7612181591       -1.2154267331
 H          2.5761097844        3.8950115425       -0.8407150819
 O          3.0154458477        0.9973964387        2.2398623785
