  62
        -98.93781831
 C          1.2177404883        1.4601303473        0.6128080886
 C          2.0310582604        1.0616306912       -0.4751568266
 C          3.0851403363        0.0736924146       -0.1803072680
 C          3.1911347819       -0.4425016191        1.0573066263
 C          4.1764593202       -1.4361545002        1.6346319733
 C          4.9648211307       -2.3709294289        0.7201977910
 C          4.1177245822       -3.3635215769       -0.0744238521
 H          4.7869812802       -3.9319542176       -0.7246187992
 H          3.6532870510       -4.0666004707        0.6218493696
 C          3.0029523891       -2.7577457854       -0.9254438901
 H          2.5269242752       -3.5723412016       -1.4793436328
 H          2.2284228278       -2.3331176798       -0.2816155085
 C          3.4482691140       -1.7046101485       -1.9396095231
 H          2.5891862994       -1.4930791714       -2.5822800505
 H          4.2447557773       -2.1121706677       -2.5656075211
 C          3.9211900992       -0.3641670745       -1.3470837893
 H          4.9731306843       -0.3979531742       -1.0730894201
 H          3.8041239828        0.4029679772       -2.1179772921
 H          5.5997107431       -1.7994660034        0.0494560733
 H          5.6279275727       -2.9501466805        1.3688209460
 H          4.8893556177       -0.8503536809        2.2260642799
 H          3.6010755183       -2.0365384240        2.3464139087
 O          2.3610330956       -0.0541174311        2.0684934690
 C          1.3445259560        0.8624071711        1.8668247262
 O          0.6245310279        1.0538670108        2.8686571125
 H         -0.6427323450       -0.0915647273       -0.0740408602
 C         -1.0742240602        0.5720462535       -0.8070247103
 C         -0.7968678577        1.9308823863       -0.7388433387
 C         -1.3257927076        2.7622086840       -1.7166846146
 C         -2.1013571318        2.2327738481       -2.7347967170
 C         -2.3779720700        0.8790194196       -2.7946060142
 C         -1.8491799504        0.0382239574       -1.8210866147
 N         -2.0806510461       -1.3443591425       -1.8420795989
 S         -2.1371772045       -2.2130330904       -0.4181941449
 O         -0.8172297369       -2.3710031851        0.1396708090
 O         -2.8173261150       -3.4384058549       -0.7815125747
 C         -3.1792990413       -1.2529078477        0.6666580824
 C         -4.5132355477       -1.1376341512        0.3240862471
 C         -5.3487360098       -0.3702969003        1.1180880818
 C         -4.8380050597        0.2721363705        2.2362153349
 C         -3.4994808901        0.1423616130        2.5706931233
 C         -2.6593856314       -0.6278508978        1.7811712668
 H         -1.6130229818       -0.7392549360        2.0218549130
 H         -3.0930149487        0.6392836872        3.4374348032
 H         -5.4854167606        0.8750107158        2.8531434988
 H         -6.3915183684       -0.2724906189        0.8629917941
 H         -4.8749379342       -1.6614584199       -0.5456553033
 H         -2.7528159553       -1.6663789264       -2.5216245063
 H         -2.9803980760        0.4724323859       -3.5920930444
 H         -2.4990970490        2.8875350549       -3.4952591110
 H         -1.1154870080        3.8188205634       -1.6971547146
 C          0.0410692608        2.4026832496        0.4263602743
 H         -0.5681849788        2.2655211812        1.3363091917
 C          0.3984484105        3.8806139816        0.3694975474
 C          1.7146021389        4.3829242586        0.8820934899
 C          1.4167961958        4.4249185308       -0.5851091894
 H          1.2287344717        5.3863003578       -1.0407083620
 H          1.9149002096        3.7202188881       -1.2311939835
 H          1.7291335103        5.3102207408        1.4353704963
 H          2.4255286567        3.6505107902        1.2373815643
 H         -0.4607994942        4.5123358922        0.5726292742
 O          1.8978149169        1.5002353901       -1.6465100484
