  62
        -98.94859986
 C         -1.5625009737       -1.3340706116        0.1787168074
 C         -0.9858834569       -2.3196767394       -0.6550260140
 C          0.3223514427       -2.8297330256       -0.2292550444
 C          0.9000902509       -2.3416264212        0.8836170681
 C          2.2259383369       -2.7678451500        1.4529995855
 C          3.4340826037       -2.0816524219        0.8025311970
 C          3.7800120170       -2.5639865886       -0.6064185382
 H          3.8475541420       -3.6526250720       -0.6147403361
 H          4.7717492886       -2.1738612007       -0.8436982893
 C          2.8015714695       -2.1010035989       -1.6945581415
 H          3.3623616186       -1.7456940849       -2.5628740191
 H          2.2190753212       -1.2474365312       -1.3376399290
 C          1.8444647228       -3.1835421252       -2.1946203817
 H          2.4101778162       -3.9621263148       -2.7125961447
 H          1.1646511434       -2.7238268205       -2.9170429022
 C          0.9993549955       -3.8454491467       -1.0990468178
 H          1.6200497560       -4.5086884359       -0.4963957868
 H          0.2196706822       -4.4392314637       -1.5834700637
 H          4.2972080277       -2.2636714972        1.4467578989
 H          3.2525107198       -1.0049089545        0.7793364814
 H          2.3301643390       -3.8501083883        1.3682964846
 H          2.2078963809       -2.5007030722        2.5115341724
 O          0.3108691954       -1.3952908104        1.6613125857
 C         -0.9272603026       -0.8659854431        1.3286954657
 O         -1.3483543581       -0.0059228579        2.1244710061
 O         -1.5411168804       -2.7567144579       -1.7001831325
 C         -2.8858810113       -0.7043085298       -0.2137266181
 C         -2.7338790989        0.7953895875       -0.2997636692
 C         -3.7125952953        1.6864400084        0.1227465796
 C         -3.4912854309        3.0513315119        0.0541383242
 C         -2.2920435032        3.5549724940       -0.4150217919
 C         -1.3100370478        2.6709046650       -0.8521648632
 C         -1.5514917497        1.3069709676       -0.8187876480
 H         -0.7880147778        0.6302132984       -1.1714887045
 N         -0.0831741642        3.1547590016       -1.3298405698
 S          1.3582455650        2.3316416294       -1.3104673124
 O          2.3017471708        3.2679487180       -1.8842061466
 O          1.2331406100        1.0706280212       -1.9995721016
 C          1.8520667117        2.0229024696        0.3808106307
 C          0.9670974376        2.0357180315        1.4384719088
 C          1.4419444852        1.7523227435        2.7109853116
 C          2.7828983206        1.4685916736        2.9075124341
 C          3.6632245359        1.4676322439        1.8357267357
 C          3.1942015709        1.7439395737        0.5621901908
 H          3.8407966393        1.7504415604       -0.3010045342
 H          4.7075103375        1.2451584311        1.9863813204
 H          3.1428263451        1.2434621893        3.8990604288
 H          0.7448622057        1.7377027910        3.5331726188
 H         -0.0816665848        2.2318302919        1.2849148208
 H          0.0574803108        4.1495729389       -1.2419819954
 H         -2.1106649360        4.6184494094       -0.4412795449
 H         -4.2576094920        3.7337556472        0.3888812884
 H         -4.6440132461        1.3128770236        0.5154744918
 H         -3.1136869970       -1.0922188157       -1.2182671830
 C         -3.9830226674       -1.1376495495        0.7375803127
 C         -5.3916890465       -1.3024050349        0.2527359855
 C         -4.5684913721       -2.5086385117        0.5876254281
 H         -4.8073328351       -3.0684543481        1.4793493471
 H         -4.1958151643       -3.1177162853       -0.2231229078
 H         -6.2003383932       -1.0366596918        0.9169096908
 H         -5.5899836430       -1.1003196995       -0.7891103955
 H         -3.8257702636       -0.7678965070        1.7447297823
