  62
        -98.93355214
 C          2.5760773832        1.1976095645        0.3143597544
 C          2.6049138273        0.3177542732       -0.7948570899
 C          3.5289464060       -0.8278510459       -0.6933723378
 C          4.2606857430       -0.9968453356        0.4202127892
 C          5.2855780731       -2.0623023620        0.7184302556
 C          4.9379196470       -3.5060879567        0.3287879798
 C          3.4464738846       -3.8622760709        0.4149499545
 H          3.3347453492       -4.7817194845        0.9928662618
 H          2.9034083337       -3.0778203562        0.9454873290
 C          2.8059671070       -4.0895063619       -0.9567760628
 H          3.4920109855       -4.6795821996       -1.5682981327
 H          1.8956419756       -4.6793570861       -0.8252979119
 C          2.4184129732       -2.8236343898       -1.7205391973
 H          1.5653025556       -2.3415648336       -1.2346879109
 H          2.0893716090       -3.1211422541       -2.7188972495
 C          3.5291424061       -1.7701824968       -1.8624920720
 H          4.5008520269       -2.2373180585       -2.0027727630
 H          3.3026264876       -1.1618704671       -2.7421832696
 H          5.2913739899       -3.7058963281       -0.6817760611
 H          5.5063616516       -4.1575197293        0.9946979654
 H          6.2239036223       -1.7769988588        0.2340779855
 H          5.4497961488       -2.0034422160        1.7971746615
 O          4.1727931126       -0.1445287222        1.4817890426
 C          3.3264543553        0.9506131127        1.4646723969
 O          3.3242358053        1.6116237483        2.5235060370
 H          0.1618295773        0.4503762504        1.3238594443
 C         -0.3568512373        0.9579692581        0.5176673723
 C          0.2766833205        2.0118972643       -0.1311889332
 C         -0.4002466675        2.6569416146       -1.1567940650
 C         -1.6699185022        2.2457867990       -1.5248117689
 C         -2.2892688703        1.1883722578       -0.8855003043
 C         -1.6222458292        0.5364049891        0.1437073192
 N         -2.2418167387       -0.5512000244        0.7909292092
 S         -3.7364930923       -0.2634843419        1.5055520999
 O         -3.8609327855        1.1130060888        1.9277748950
 O         -3.8610523375       -1.2665405995        2.5410415538
 C         -4.9085614278       -0.6133906815        0.2125509661
 C         -5.8004078347        0.3616029121       -0.1891859231
 C         -6.7101663544        0.0644979584       -1.1921190042
 C         -6.7120287595       -1.1952916207       -1.7712065635
 C         -5.8108513638       -2.1639570018       -1.3545231919
 C         -4.8995143962       -1.8739782931       -0.3517491425
 H         -4.1857289627       -2.5983148720        0.0037585766
 H         -5.8151554420       -3.1423422333       -1.8073957566
 H         -7.4199911888       -1.4239141036       -2.5521335841
 H         -7.4114347428        0.8159956720       -1.5174873002
 H         -5.7574521383        1.3281774772        0.2867911013
 H         -1.6359437668       -1.0257701399        1.4450235390
 H         -3.2730978800        0.8591199180       -1.1776403280
 H         -2.1814107839        2.7526525617       -2.3288046114
 H          0.0731709977        3.4687564983       -1.6836729951
 C          1.6537122405        2.4036771229        0.3487711481
 H          1.5675019318        2.6629102623        1.4180236404
 C          2.2106643309        3.6364712630       -0.3477183093
 C          3.6888672058        3.8425163121       -0.4876665691
 C          2.8520448747        3.5718251527       -1.6999243794
 H          2.6751895417        4.3842774347       -2.3894904015
 H          2.9225519566        2.6048875856       -2.1714014285
 H          4.0824005961        4.8373800584       -0.3419043941
 H          4.3403611556        3.0595550738       -0.1268245523
 H          1.6248948010        4.5234727989       -0.1262989873
 O          1.9068350630        0.4703409154       -1.8284958183
