  62
        -98.94355953
 C          1.4606867819        1.3649677087        0.6124198256
 C          2.4494927992        1.2046810447       -0.3885001252
 C          3.4352660992        0.1379882819       -0.1472357762
 C          3.3149694192       -0.6480506984        0.9373617005
 C          4.2461571162       -1.7721913925        1.2897527866
 C          3.7904699269       -3.1103122903        0.6915138091
 C          3.4084389855       -3.0270159442       -0.7858747719
 H          2.5428909340       -2.3701697203       -0.8957541918
 H          3.1016842429       -4.0266634083       -1.1013768441
 C          4.5346338355       -2.5253957275       -1.7000494713
 H          4.5792058589       -3.1629238475       -2.5855817594
 H          5.4946928761       -2.6137274388       -1.1899426807
 C          4.3547388983       -1.0885246771       -2.1926392529
 H          3.3580112969       -0.9692447310       -2.6244248891
 H          5.0800901479       -0.9100268865       -2.9909753483
 C          4.5580540516        0.0066558735       -1.1381875392
 H          4.6075868240        0.9652351455       -1.6628186434
 H          5.5084086928       -0.1511468188       -0.6237301688
 H          2.9260271811       -3.4664741792        1.2565237672
 H          4.5947470766       -3.8370037479        0.8203238615
 H          5.2442576005       -1.5273417792        0.9305956952
 H          4.2762818387       -1.8619151126        2.3770763658
 O          2.3016462673       -0.5186055522        1.8315524534
 C          1.3640891972        0.4897123080        1.6988331688
 O          0.5044137285        0.5116677104        2.6020223624
 H         -1.9890242241        1.5898649129        1.3870433571
 C         -1.9151136953        1.5824570354        0.3076076565
 C         -0.7425162884        2.0158985358       -0.2948958351
 C         -0.6467064243        1.9651660321       -1.6812672683
 C         -1.7061460218        1.4998662277       -2.4395780641
 C         -2.8761299012        1.0718281130       -1.8356358990
 C         -2.9750435888        1.1088840988       -0.4520087861
 N         -4.1497586909        0.6284597532        0.1718073337
 S         -4.4175481138       -1.0133038195       -0.0503405191
 O         -4.8846878523       -1.2350470914       -1.3946447749
 O         -5.3148367970       -1.4106541122        1.0103808676
 C         -2.8060264486       -1.7439319366        0.1708928423
 C         -2.3257806530       -1.8892703703        1.4569683789
 C         -1.0381904975       -2.3632919182        1.6429902122
 C         -0.2555849644       -2.6721808383        0.5419407760
 C         -0.7501035083       -2.5182709583       -0.7435237891
 C         -2.0383812792       -2.0465244702       -0.9350924821
 H         -2.4605430330       -1.9114598964       -1.9173509052
 H         -0.1337265794       -2.7582187044       -1.5954679348
 H          0.7501974083       -3.0318593430        0.6895466042
 H         -0.6414962928       -2.4700893109        2.6397231296
 H         -2.9641059318       -1.6397768558        2.2896255351
 H         -4.1760143051        0.8330858628        1.1615244592
 H         -3.7049030550        0.6907080753       -2.4101940135
 H         -1.6193788182        1.4658107588       -3.5149958738
 H          0.2743005755        2.2669305221       -2.1551793915
 C          0.4084986535        2.4640302399        0.5714988820
 H          0.0334133257        2.5500884709        1.6003172949
 C          0.9537930081        3.8137469031        0.1523253473
 C          0.1608501623        5.0424808051        0.4774158857
 C          1.4419907837        4.7628178611        1.2031188636
 H          2.3047641410        5.3737871588        0.9841501529
 H          1.3853102877        4.4435583808        2.2339190863
 H         -0.7658730935        4.9124833337        1.0162128611
 H          0.1411509555        5.8476553941       -0.2407082642
 H          1.4933989982        3.7957624853       -0.7842785941
 O          2.5373393057        1.9103302833       -1.4267635007
