  62
        -98.94033238
 C          2.4897479000        1.1281551403        0.0639528486
 C          2.6672298200        0.0286526300       -0.8100706209
 C          4.0534120701       -0.4220590500       -0.9884035908
 C          5.0536767001        0.2219670703       -0.3599542111
 C          6.5184994301       -0.1084519996       -0.4566765611
 C          6.9683253202       -1.2265818391        0.4939217894
 C          6.5095733203       -2.6332848494        0.1074784100
 H          6.7771803902       -2.8288097198       -0.9312858399
 H          7.0723185304       -3.3347157190        0.7266283003
 C          5.0096627803       -2.8893746694        0.3115007802
 H          4.5951973203       -2.1249522991        0.9727954699
 H          4.8683725104       -3.8518568292        0.8082251707
 C          4.1900322102       -2.9215042200       -0.9785506097
 H          4.5040424403       -3.7692311303       -1.5915251493
 H          3.1393695503       -3.0662921400       -0.7137976495
 C          4.2917497501       -1.6443100104       -1.8225478203
 H          5.2648303501       -1.5903675805       -2.3101596003
 H          3.5149211500       -1.6778937108       -2.5903580502
 H          6.6148289003       -0.9917624087        1.5005493893
 H          8.0604615802       -1.2164552691        0.5146354793
 H          6.7662439200       -0.3795340200       -1.4832015710
 H          7.0603048500        0.8033985505       -0.1966924815
 O          4.8412910100        1.2931774407        0.4511072484
 C          3.5597351700        1.7565326407        0.7000667683
 O          3.5052458400        2.7183952710        1.4937323279
 H         -1.4595252300        0.9028808198       -0.4252758610
 C         -1.0579529899        0.3102644102        0.3792708892
 C          0.2132236001        0.5544259105        0.8726298890
 C          0.6855654302       -0.2364485190        1.9176260694
 C         -0.0902076496       -1.2508976988        2.4428907199
 C         -1.3609352797       -1.4896333491        1.9492486301
 C         -1.8433402798       -0.7051121296        0.9090655897
 N         -3.1178651898       -0.9399566899        0.3692550799
 S         -4.0234376499        0.3716729298       -0.1837463706
 O         -3.6044463001        0.7056158892       -1.5213901208
 O         -3.9851179599        1.4441324102        0.7851962289
 C         -5.6484906199       -0.3621669504       -0.2312978902
 C         -5.9834551799       -1.1577249709       -1.3109356398
 C         -7.2341315599       -1.7536334810       -1.3414328194
 C         -8.1241518098       -1.5458329006       -0.2979785695
 C         -7.7746464698       -0.7435980801        0.7778065302
 C         -6.5246863498       -0.1456255800        0.8153538198
 H         -6.2128029098        0.4925390104        1.6264560195
 H         -8.4700000797       -0.5813480798        1.5855381601
 H         -9.0975276598       -2.0096035007       -0.3252373692
 H         -7.5103157199       -2.3756294214       -2.1775509391
 H         -5.2628274799       -1.2826192412       -2.1023787198
 H         -3.6743420197       -1.5703019797        0.9301285202
 H         -1.9687405296       -2.2812642990        2.3604224305
 H          0.2936527405       -1.8577231784        3.2493797301
 H          1.6757600703       -0.0438742587        2.3093536292
 C          1.0939955300        1.6571855104        0.3365182185
 H          1.2020540600        2.4180305907        1.1244371281
 C          0.5374999299        2.3218812198       -0.9051191418
 C         -0.4739458602        3.4204298497       -0.7847708722
 C          0.9268838898        3.7347738397       -1.2145530424
 H          1.1022921297        4.0079409892       -2.2442005826
 H          1.5785278898        4.2334617900       -0.5116040827
 H         -1.2666633403        3.4716626394       -1.5166483522
 H         -0.7811767502        3.7106347602        0.2090652577
 H          0.4440295199        1.6345306694       -1.7388321515
 O          1.7227816100       -0.5473882304       -1.4101262406
