  62
        -98.94965081
 C          1.6873096000        1.2180689102        0.3431690407
 C          1.3285960704        0.1518130005       -0.5140583197
 C          1.8963574105       -1.1572538696       -0.1798093901
 C          2.6687586002       -1.2895800598        0.9134018001
 C          3.2935626603       -2.5667241499        1.4063020098
 C          4.6170351906       -2.9270350594        0.7167311600
 C          4.4897602710       -3.4167929890       -0.7263832602
 H          5.4573639812       -3.8374355887       -1.0072009101
 H          3.7580433212       -4.2240717091       -0.7701426207
 C          4.1147764211       -2.3229011487       -1.7358305799
 H          4.7584717013       -2.4024965782       -2.6146514097
 H          4.2965051608       -1.3413489288       -1.2922001195
 C          2.6679385212       -2.3833576187       -2.2253268003
 H          2.5082280815       -3.3077173285       -2.7845700507
 H          2.5006570213       -1.5436486485       -2.9042143700
 C          1.6214655309       -2.3029572893       -1.1060006905
 H          0.6406402610       -2.1359277093       -1.5581831807
 H          1.5877789209       -3.2392757895       -0.5488394809
 H          5.2752506804       -2.0557476693        0.7499353105
 H          5.0843067705       -3.7189509196        1.3066733199
 H          3.4867883800       -2.4251764002        2.4721489799
 H          2.5825532005       -3.3859515500        1.2921867893
 O          2.9638974199       -0.2456703701        1.7341016106
 C          2.4834625597        1.0270444999        1.4702356009
 O          2.8288373094        1.8918776897        2.3032638813
 O          0.5674912606        0.2877333607       -1.5083068199
 C          1.1368691698        2.6078132802        0.0802273011
 C         -0.3693643601        2.5531542100       -0.0089991293
 C         -1.1059662100        3.2756031202       -0.9397800393
 C         -2.4852530600        3.1653720700       -0.9823626297
 C         -3.1554497601        2.3193473696       -0.1177152002
 C         -2.4278475302        1.6012905394        0.8239964398
 C         -1.0523216702        1.7457928096        0.8917654802
 H         -0.5032063303        1.1815958294        1.6320014401
 N         -3.0557095103        0.7065036690        1.7171670493
 S         -2.6546116100       -0.9154887309        1.5666017188
 O         -3.4839043001       -1.5964178314        2.5386503184
 O         -1.2321840100       -1.0901247707        1.7078136791
 C         -3.1982547395       -1.3515852904       -0.0762584215
 C         -4.4232951394       -1.9753552006       -0.2203716220
 C         -4.8888742090       -2.2573003402       -1.4941088022
 C         -4.1293898287       -1.9020596997       -2.5989654219
 C         -2.9052722389       -1.2725124495       -2.4366794814
 C         -2.4296772093       -0.9904376299       -1.1646232411
 H         -1.4768132494       -0.5043613698       -1.0200610607
 H         -2.3080221487       -0.9919440491       -3.2895210111
 H         -4.4919663684       -2.1169612594       -3.5918401921
 H         -5.8401027589       -2.7486666103       -1.6209763127
 H         -4.9763448395       -2.2342063310        0.6682007077
 H         -4.0634019103        0.7922609688        1.7330521491
 H         -4.2285082000        2.2115823595       -0.1687014405
 H         -3.0436368699        3.7314523802       -1.7120882496
 H         -0.5981358899        3.9209494606       -1.6378086089
 H          1.4105191695        3.2172975600        0.9543994314
 C          1.7887244401        3.1996611008       -1.1535271485
 C          2.0098662799        4.6778024008       -1.2623914380
 C          3.1730807299        3.7605070709       -1.0373384380
 H          3.8676451502        3.5950366013       -1.8472156778
 H          3.6317548897        3.7412659507       -0.0590210179
 H          1.9097643700        5.1445108712       -2.2307758378
 H          1.6868489995        5.2947802205       -0.4375418178
 H          1.5461867204        2.6482522911       -2.0548404188
