  62
        -98.94509150
 C         -2.2167501796        0.7906317441        0.0884874841
 C         -3.1227372695        0.5809056158       -0.9842791698
 C         -3.9342037892       -0.6381719635       -0.9197067201
 C         -3.7600656508       -1.4998058693        0.0984203963
 C         -4.4895449245       -2.8011748566        0.2931367533
 C         -5.8579147506       -2.6530123790        0.9727932051
 C         -6.9546627423       -2.0403077358        0.1007528459
 H         -7.0084267125       -2.5801254885       -0.8450989697
 H         -7.9017055063       -2.1982213477        0.6205281323
 C         -6.7845602624       -0.5387757470       -0.1694073086
 H         -6.0803389217       -0.1168347911        0.5513233629
 H         -7.7398703373       -0.0313431946       -0.0179702501
 C         -6.3098943223       -0.1978457504       -1.5820215108
 H         -7.0701469610       -0.4974994664       -2.3065971329
 H         -6.1879148655        0.8860591891       -1.6499011280
 C         -4.9776188544       -0.8495230172       -1.9749865914
 H         -5.1192633273       -1.9138974418       -2.1611512094
 H         -4.6212772386       -0.3772761533       -2.8935932032
 H         -6.1799016119       -3.6517693435        1.2765167662
 H         -5.7344544572       -2.0543688202        1.8782985297
 H         -3.8534784335       -3.4215547682        0.9284337089
 H         -4.6109442654       -3.3004368687       -0.6686259429
 O         -2.8571371975       -1.2825279405        1.0898658327
 C         -2.0778189545       -0.1342263104        1.1232954521
 O         -1.3270708753       -0.0749189542        2.1180207229
 O         -3.2478845893        1.3800858132       -1.9493649245
 C         -1.3697267011        2.0532459013        0.0445855814
 C          0.0376429313        1.6827950969       -0.3555532628
 C          0.4252564252        1.7597033355       -1.6895471661
 C          1.6923081259        1.3659219913       -2.0798794914
 C          2.5947162446        0.8767628481       -1.1517557230
 C          2.2098664552        0.7771352228        0.1782497270
 C          0.9470356763        1.1960047755        0.5719767758
 H          0.6522905473        1.0941172293        1.6049089285
 N          3.1103877180        0.2525322673        1.1252066389
 S          3.7784018805       -1.2532771177        0.7854516667
 O          2.9298395357       -2.0275929757       -0.0914720492
 O          4.0835398929       -1.8380304625        2.0732026779
 C          5.3067945339       -0.8529088633       -0.0383108958
 C          6.2322165439       -0.0902319387        0.6471383602
 C          7.4272685912        0.2320355432        0.0243255346
 C          7.6763352741       -0.2124182694       -1.2657484828
 C          6.7390680179       -0.9807285400       -1.9391153964
 C          5.5413849320       -1.3066224846       -1.3214455293
 H          4.7817868707       -1.8989667077       -1.8067175228
 H          6.9345686333       -1.3264805218       -2.9414840109
 H          8.6067674349        0.0406037121       -1.7490427152
 H          8.1590831727        0.8278470037        0.5455195689
 H          6.0007665824        0.2293734037        1.6494131405
 H          2.7344585529        0.2549930367        2.0634661214
 H          3.5806541059        0.5591158959       -1.4492369719
 H          1.9798251407        1.4361246307       -3.1178665521
 H         -0.2861921372        2.1153788239       -2.4211565413
 H         -1.8007325595        2.6571345173       -0.7650751302
 C         -1.4327659255        2.8540164826        1.3288333764
 C         -0.9798040298        4.2824158396        1.3163922501
 C         -2.4366301708        3.9592884146        1.4525437219
 H         -2.9143516553        4.1151129885        2.4082636428
 H         -3.0826130953        4.1452242590        0.6069692237
 H         -0.4543054619        4.6640673131        2.1781998122
 H         -0.6365646072        4.6864905835        0.3761864799
 H         -1.2353181159        2.2681968922        2.2173503914
