  62
        -98.93419475
 C         -1.9729494499       -0.0065237910        0.5008296501
 C         -2.7788718199       -0.6478356303       -0.4693130204
 C         -4.1058655199       -0.0463119302       -0.7164662699
 C         -4.4588553200        1.0695858992       -0.0571763590
 C         -5.7661205900        1.8093497491       -0.1305406384
 C         -6.7283585300        1.3260681382        0.9679696413
 C         -7.5862514799        0.1194209984        0.5890721104
 H         -8.1202625498       -0.1949866323        1.4888434901
 H         -8.3343527399        0.4274281689       -0.1444349094
 C         -6.8164779498       -1.0794016111        0.0292100494
 H         -5.9129077998       -1.2433104215        0.6191590692
 H         -7.4442365697       -1.9648735812        0.1464208587
 C         -6.4500878799       -0.9218328899       -1.4540076705
 H         -7.0022486599       -0.0796207796       -1.8703806098
 H         -6.7770200798       -1.8071110494       -2.0035371812
 C         -4.9518577999       -0.7516817495       -1.7418097704
 H         -4.4888846598       -1.7374967794       -1.8516987912
 H         -4.8287415000       -0.2425877787       -2.7037029500
 H         -6.1333736699        1.0916018275        1.8545154711
 H         -7.3979752000        2.1468611679        1.2328922620
 H         -5.5359615301        2.8619806790        0.0476948125
 H         -6.2118967101        1.7114192299       -1.1158359184
 O         -3.6400014300        1.6715396885        0.8501320215
 C         -2.3956455500        1.1561329984        1.1503597910
 O         -1.7621090500        1.8074527578        2.0063257315
 H          1.5687334701        0.9852997584        1.5636580708
 C          1.5041953300        0.8317079793        0.4948106606
 C          0.4474091001        0.1007343796       -0.0267686899
 C          0.3706510001       -0.0727250393       -1.4055322200
 C          1.3274930200        0.4801236214       -2.2366691396
 C          2.3807354300        1.2099142311       -1.7127022991
 C          2.4670806300        1.3856909400       -0.3387317289
 N          3.5629124999        2.0955021197        0.1962223816
 S          5.0659616800        1.4207989400       -0.1305318690
 O          5.9506067900        1.9266738493        0.8941166014
 O          5.4333187299        1.7157663712       -1.4916337988
 C          4.7939396801       -0.3300123301        0.0709993996
 C          4.7332371602       -0.8366900212        1.3542233392
 C          4.4160618003       -2.1732885513        1.5330165382
 C          4.1519985504       -2.9729943905        0.4314492675
 C          4.2206275703       -2.4499196895       -0.8501692520
 C          4.5439621502       -1.1152749493       -1.0361926410
 H          4.6089750801       -0.6715233485       -2.0158347606
 H          4.0156890203       -3.0749141988       -1.7043729825
 H          3.8875530205       -4.0084989706        0.5738431567
 H          4.3665931404       -2.5852560721        2.5283084278
 H          4.9454200302       -0.1826513918        2.1851680397
 H          3.4748564500        2.2747646589        1.1866157917
 H          3.1407901599        1.6408537716       -2.3444084688
 H          1.2540389300        0.3406596123       -3.3045751097
 H         -0.4453491899       -0.6496090391       -1.8132693205
 C         -0.5874593198       -0.4955566212        0.8914823697
 H         -0.4156666598       -0.0800184820        1.8967217000
 C         -0.4874086697       -2.0122297413        1.0009676284
 C          0.4484340503       -2.8423861006        0.1783787778
 C          0.7283464004       -2.6241880617        1.6323628679
 H          0.5974746905       -3.4459030423        2.3197220473
 H          1.5398142703       -1.9580382519        1.8859142784
 H          0.0985488904       -3.8106182504       -0.1450207130
 H          1.0822111503       -2.3450706000       -0.5388039019
 H         -1.4409788697       -2.4672544416        1.2448570081
 O         -2.4328700198       -1.6756338898       -1.1057491412
