  62
        -98.93823309
 C          1.2581596974        1.4228881838        0.6571724701
 C          2.1436792473        1.2052170570       -0.4244968667
 C          3.1530557172        0.1427245789       -0.2378583999
 C          3.1237160953       -0.6108153149        0.8741961648
 C          4.0820092457       -1.6842670393        1.3316819696
 C          4.7113551079       -2.6053465265        0.2822187081
 C          3.7599151029       -3.0492683529       -0.8375069018
 H          3.7960250913       -4.1365201797       -0.9264112433
 H          2.7358268900       -2.7772790675       -0.5831371564
 C          4.1141833526       -2.4556089001       -2.2018487619
 H          5.1945653900       -2.5230779554       -2.3473616995
 H          3.6411806998       -3.0599339234       -2.9798226253
 C          3.6713762888       -1.0096543639       -2.4191077079
 H          2.5802457170       -0.9561345255       -2.4691248269
 H          4.0474517341       -0.6875753875       -3.3931440353
 C          4.1467033305       -0.0062423814       -1.3553284675
 H          5.1334448433       -0.2696529272       -0.9823126347
 H          4.2095280237        0.9776174870       -1.8283050332
 H          5.5836581080       -2.1229624707       -0.1555464337
 H          5.0768698260       -3.4827560965        0.8191916453
 H          4.8817469096       -1.1914438526        1.8937934246
 H          3.5177048795       -2.2835564177        2.0510517392
 O          2.1654408410       -0.4469735784        1.8320631975
 C          1.2318646691        0.5666184668        1.7597840341
 O          0.4395241317        0.6065252957        2.7229111481
 H         -1.8819525126        1.1945570541        1.4535002886
 C         -1.9578819464        1.4571774691        0.4059628814
 C         -0.9326238865        2.1891014502       -0.1808718257
 C         -1.0201082420        2.4903963012       -1.5343303255
 C         -2.1144996676        2.0761237914       -2.2746445978
 C         -3.1391774519        1.3562663026       -1.6854582229
 C         -3.0521982629        1.0398258055       -0.3362096504
 N         -4.0779032626        0.2668621213        0.2596729437
 S         -4.0908670271       -1.3437538942       -0.2012792481
 O         -4.3122925729       -1.4143264989       -1.6222501798
 O         -5.0752109207       -1.9893891433        0.6357433436
 C         -2.4581200062       -1.9374856970        0.2003613321
 C         -2.2654996200       -2.6287495904        1.3794367112
 C         -0.9833971549       -3.0233138265        1.7238779902
 C          0.0816766952       -2.7025234596        0.8973509170
 C         -0.1265778974       -1.9941999557       -0.2753585497
 C         -1.4078204683       -1.6096418709       -0.6336810796
 H         -1.6007896939       -1.0670544949       -1.5450864329
 H          0.7040714074       -1.7244641218       -0.9100884005
 H          1.0807116487       -3.0009397766        1.1741458562
 H         -0.8143784748       -3.5688462105        2.6383067398
 H         -3.1212951640       -2.8513756445        1.9966705240
 H         -4.0606353213        0.3088625482        1.2699894552
 H         -3.9886761230        1.0116291730       -2.2521313912
 H         -2.1699424523        2.3163734544       -3.3256274102
 H         -0.2167326954        3.0282493026       -2.0104676196
 C          0.2535552876        2.5661046661        0.6711984456
 H         -0.0974226765        2.6337716291        1.7100093679
 C          0.8731936636        3.8935386202        0.2877795803
 C          0.1258814485        5.1557948285        0.5920624635
 C          1.3615637822        4.8108605627        1.3664796988
 H          2.2596197432        5.3830677787        1.1880306675
 H          1.2483352169        4.4870430870        2.3910990941
 H          0.1728671833        5.9672623010       -0.1176879261
 H         -0.8273729025        5.0631822836        1.0906779849
 H          1.4519849127        3.8563269093       -0.6252261676
 O          2.1334455230        1.8748950338       -1.4889093420
