  62
        -98.94331491
 C         -1.9006391662       -0.5864768962       -0.7613014399
 C         -2.2606198671       -0.1213084625        0.5266530339
 C         -3.6964458168       -0.1630831335        0.8409396591
 C         -4.5589326084       -0.6436927801       -0.0733449837
 C         -6.0487740768       -0.7006227470        0.0990192776
 C         -6.7194864447        0.5735837029       -0.4328487730
 C         -6.0784275311        1.8654868117        0.0737913599
 H         -5.0657352932        1.9418208701       -0.3284599188
 H         -6.6524214498        2.6973147405       -0.3402471936
 C         -6.0262872240        1.9906286211        1.6028874175
 H         -6.3420299999        2.9979384965        1.8825633664
 H         -6.7318294290        1.2932527575        2.0559861167
 C         -4.6387514525        1.7738637848        2.2097418591
 H         -4.6700130033        2.0981777357        3.2532946805
 H         -3.9105986447        2.4037375122        1.6928402149
 C         -4.1218130377        0.3296942007        2.1955166526
 H         -3.2252199869        0.2907475585        2.8211268343
 H         -4.8724269036       -0.3340988281        2.6294702671
 H         -6.6600171511        0.5663907757       -1.5236950557
 H         -7.7735718461        0.5522852723       -0.1501450872
 H         -6.4266252097       -1.5591954738       -0.4588036382
 H         -6.2823811692       -0.8338733362        1.1535365647
 O         -4.1714931511       -1.0983573434       -1.2930877979
 C         -2.8385347529       -1.0750924455       -1.6697893139
 O         -2.6185804340       -1.5166041628       -2.8165372936
 O         -1.4289311160        0.3028035120        1.3699970724
 C         -0.4445014563       -0.5737156442       -1.1859011566
 C          0.4018081423       -1.3905264730       -0.2389083977
 C         -0.0950430821       -2.5903191476        0.2634544728
 C          0.6593217080       -3.3638348235        1.1234675225
 C          1.9370588874       -2.9716200807        1.4814873524
 C          2.4514698318       -1.7870639954        0.9709263581
 C          1.6827403815       -1.0013661878        0.1224789321
 H          2.1010567209       -0.0855906224       -0.2608859448
 N          3.7421558783       -1.3590383825        1.3151859296
 S          4.7356142530       -0.6877156218        0.1483701961
 O          4.4790787413       -1.2471474475       -1.1581334870
 O          6.0767757006       -0.8697952424        0.6630920226
 C          4.3548378694        1.0512880121        0.1602455233
 C          4.0722254966        1.6722657588        1.3607267973
 C          3.8251506425        3.0357955537        1.3659147538
 C          3.8737629083        3.7537038795        0.1804539412
 C          4.1654076763        3.1165371706       -1.0155903579
 C          4.4084508954        1.7516925159       -1.0284900588
 H          4.6263430966        1.2145255778       -1.9378373631
 H          4.2029804500        3.6755558362       -1.9372555697
 H          3.6821605480        4.8151943543        0.1881810103
 H          3.5946630549        3.5340532114        2.2938405157
 H          4.0395248474        1.0853066461        2.2632801179
 H          4.2514426993       -1.9873318189        1.9195943039
 H          2.5301516063       -3.5771936570        2.1499572255
 H          0.2532464660       -4.2856193559        1.5124952674
 H         -1.0885780391       -2.9066023437       -0.0246745310
 H         -0.4089859912       -1.0620352840       -2.1717164976
 C          0.0344450413        0.8565546447       -1.3341455247
 C          1.0741060134        1.2113550713       -2.3528749365
 C         -0.3516049864        1.6217259588       -2.5630592514
 H         -0.6083512827        2.6654420630       -2.4626176855
 H         -0.9325954668        1.0982708625       -3.3088389384
 H          1.7945788971        1.9761308069       -2.1046154535
 H          1.4714822119        0.4134903882       -2.9626763778
 H          0.0392602414        1.3906182401       -0.3907127085
