  62
        -98.93962417
 C         -1.5904110299       -1.5321775035        0.3234991208
 C         -1.6668438690       -0.3924670060        1.1636109679
 C         -2.8625772233        0.4551036480        1.0320092010
 C         -3.8198935687        0.0969376326        0.1590994406
 C         -5.1007168364        0.8256340715       -0.1392440529
 C         -4.9356439127        1.7449926297       -1.3606878949
 C         -4.3903869930        3.1368721294       -1.0440048645
 H         -4.1900841855        3.6320972510       -1.9967226141
 H         -5.1604276819        3.7156908096       -0.5297577731
 C         -3.1128210734        3.1582039314       -0.2001609531
 H         -2.4358674207        2.3767767199       -0.5502182911
 H         -2.6192060897        4.1174844772       -0.3668570317
 C         -3.3779193594        2.9958308420        1.3049519855
 H         -4.4424385062        3.1368517472        1.4920856917
 H         -2.8621039311        3.7897002764        1.8494593530
 C         -2.9235054017        1.6632744541        1.9259734651
 H         -3.5662689895        1.4326792740        2.7820976917
 H         -1.9086071820        1.7675671048        2.3231209672
 H         -5.9070603929        1.8626797899       -1.8450277377
 H         -4.2746587484        1.2419651998       -2.0710523342
 H         -5.8453639039        0.0627782554       -0.3759783514
 H         -5.4349465999        1.3840957233        0.7304240803
 O         -3.7100964155       -1.0033725651       -0.6299016510
 C         -2.5974190077       -1.8290377345       -0.5956198320
 O         -2.6502300546       -2.7633213381       -1.4182606478
 O         -0.7680733136       -0.0955391784        1.9972139159
 C         -0.3488757000       -2.3963078929        0.4665764297
 C          0.6946831868       -2.0028775328       -0.5516763889
 C          0.4832845463       -2.1772581470       -1.9157238385
 C          1.4562944411       -1.8043980814       -2.8244179843
 C          2.6464197884       -1.2416566128       -2.3960971213
 C          2.8660331580       -1.0606627277       -1.0357491298
 C          1.8927422614       -1.4496871378       -0.1248775245
 H          2.0787885592       -1.3107658850        0.9289914773
 N          4.0715814045       -0.5119579079       -0.5725178680
 S          4.0884495396        0.6084899617        0.6705403494
 O          5.4225301875        1.1664113341        0.6214285227
 O          3.7113151077       -0.0209519226        1.9094441703
 C          2.9062081802        1.8522597683        0.1871890999
 C          1.6053351562        1.8062208277        0.6443705842
 C          0.7116512156        2.7707746848        0.2044601232
 C          1.1249654251        3.7532830103       -0.6803873500
 C          2.4368240505        3.7859864571       -1.1296344246
 C          3.3354044472        2.8266862181       -0.6946870191
 H          4.3674972093        2.8246461604       -1.0061530497
 H          2.7590606465        4.5537074446       -1.8145619885
 H          0.4211759055        4.4977318076       -1.0180282316
 H         -0.3056400086        2.7381747562        0.5598500658
 H          1.2910301063        1.0354813307        1.3306785952
 H          4.7166427635       -0.2460071315       -1.3023752919
 H          3.4026876505       -0.9494004850       -3.1086131824
 H          1.2840602150       -1.9472825201       -3.8805307908
 H         -0.4518279887       -2.5975276721       -2.2530732990
 H          0.0563860775       -2.1564016627        1.4595257858
 C         -0.6234278383       -3.8858672515        0.4150857666
 C          0.3866669116       -4.8241291331        1.0016197381
 C         -0.9316856552       -4.6187511945        1.6844082682
 H         -1.6598842263       -5.4152899531        1.6548454749
 H         -0.9467928308       -4.0480891781        2.6018637270
 H          0.5668412926       -5.7641011988        0.5031525656
 H          1.2660177161       -4.3919193184        1.4559946275
 H         -1.1451035596       -4.2015545810       -0.4784175271
