  62
        -98.93550930
 C         -2.7798407109       -0.4170166331       -0.2555233311
 C         -2.0473922283        0.4940724238       -1.0527461455
 C         -2.1739535197        1.9208192573       -0.7053403533
 C         -2.9738080165        2.2933298310        0.3071296503
 C         -3.2836305687        3.6834811457        0.8036095349
 C         -2.1169141826        4.6733884545        0.9207578367
 C         -0.7693159844        4.0479240317        1.3102571915
 H         -0.3504764529        4.6019125724        2.1526712908
 H         -0.9091586569        3.0166036760        1.6410078106
 C          0.2562409162        4.0746625028        0.1748840298
 H          1.2534194193        3.9600404542        0.6072059441
 H          0.2156784670        5.0503200469       -0.3151280279
 C          0.0929029982        2.9743111121       -0.8725286600
 H          0.8147752649        3.1614759409       -1.6721335003
 H          0.3461427955        2.0097499697       -0.4207462951
 C         -1.3088832105        2.8596535879       -1.4960051655
 H         -1.7711664533        3.8375109189       -1.6057305289
 H         -1.2027412207        2.4108264141       -2.4872723878
 H         -2.4050968067        5.4105719659        1.6721054151
 H         -1.9992856046        5.2123294739       -0.0182959593
 H         -4.0520108813        4.1123225846        0.1535236805
 H         -3.7387341110        3.5373963849        1.7862284638
 O         -3.6854222134        1.3857401641        1.0340116786
 C         -3.5869828603        0.0286813448        0.7950877104
 O         -4.2693605912       -0.6748895067        1.5673567331
 H         -0.1528104421       -1.4254457436       -1.1615315549
 C         -0.1919386170       -2.0273781116       -0.2658498786
 C         -1.4250758309       -2.4095609948        0.2426157754
 C         -1.4537808771       -3.1627984596        1.4102131424
 C         -0.2785865900       -3.5079120794        2.0563473506
 C          0.9469111441       -3.0951250103        1.5632048937
 C          0.9821433527       -2.3441258580        0.3966235601
 N          2.2237673706       -1.8530114782       -0.0867777147
 S          2.7994091743       -0.6110301068        0.9161946737
 O          3.3073261328       -1.2173736818        2.1214704071
 O          1.7790089152        0.3986310999        1.0980322264
 C          4.1468107729        0.0307505790       -0.0573146992
 C          3.9335971007        1.1397190347       -0.8530504491
 C          4.9753161596        1.6120442098       -1.6360414081
 C          6.2029240996        0.9674481851       -1.6128652898
 C          6.4001912186       -0.1463913755       -0.8100405338
 C          5.3635806589       -0.6229787469       -0.0236340156
 H          5.4708991456       -1.4792302776        0.6211791192
 H          7.3565681856       -0.6435919692       -0.7946304759
 H          7.0111979633        1.3373803131       -2.2237534312
 H          4.8238765936        2.4782954940       -2.2598091369
 H          2.9638464781        1.6122324280       -0.8356694423
 H          2.0985193295       -1.4585069609       -1.0125251079
 H          1.8665301430       -3.3168787776        2.0798877482
 H         -0.3185338051       -4.0896201304        2.9650918975
 H         -2.4078612411       -3.4518358953        1.8275115397
 C         -2.6970505068       -1.9298792721       -0.4152829048
 H         -3.5450479332       -2.3366124993        0.1514457701
 C         -2.8088683756       -2.3982923290       -1.8518572590
 C         -3.2085955092       -3.8168863140       -2.1203658946
 C         -4.1615942496       -2.6997167240       -2.4197234681
 H         -4.3542915025       -2.4452970269       -3.4510353852
 H         -5.0160469834       -2.5694765848       -1.7713750582
 H         -3.4182087470       -4.4463454159       -1.2687050960
 H         -2.7461074012       -4.3341825662       -2.9467582110
 H         -2.0848950227       -1.9433649759       -2.5140053351
 O         -1.3170564185        0.1643817638       -2.0262524053
