  62
        -98.94233752
 C         -2.0152847336       -0.1269634545        0.3984756307
 C         -3.1628744189       -0.6653418221        1.0289924066
 C         -4.4454106185       -0.0701068395        0.6385430963
 C         -4.4679108032        0.9460279762       -0.2431554126
 C         -5.6946155570        1.6741337207       -0.7222104733
 C         -6.4189781867        0.9786479140       -1.8829901931
 C         -7.1827525981       -0.2911982483       -1.5053293241
 H         -7.8430026382       -0.0795825320       -0.6637180148
 H         -7.8139790044       -0.5502598851       -2.3576991442
 C         -6.2876190897       -1.4926783246       -1.1711201156
 H         -5.2792862592       -1.3125991814       -1.5511885598
 H         -6.6666719281       -2.3817096553       -1.6801760070
 C         -6.2026556035       -1.8255314742        0.3185063690
 H         -5.5162337889       -2.6669523486        0.4421236153
 H         -7.1850163135       -2.1359018151        0.6811482491
 C         -5.7002127056       -0.6715365031        1.1960684722
 H         -6.4744982011        0.0883751064        1.2983626808
 H         -5.4662875815       -1.0702378834        2.1861818656
 H         -5.6882727160        0.7471018267       -2.6615563904
 H         -7.1309000555        1.6954507803       -2.2987847589
 H         -5.3588380216        2.6554453972       -1.0644158445
 H         -6.3866013670        1.8137545380        0.1087606378
 O         -3.3385961821        1.4572389697       -0.8027542631
 C         -2.0891585882        0.9234257090       -0.5159445196
 O         -1.1487488068        1.4700643679       -1.1235983036
 O         -3.1157767763       -1.5920975986        1.8813660882
 C         -0.6572675866       -0.7202903592        0.7258774278
 C          0.2849755140        0.3574162791        1.1986511882
 C         -0.0929052473        1.1536197735        2.2767749279
 C          0.7360076942        2.1600175662        2.7322739841
 C          1.9619016634        2.3858467784        2.1315733862
 C          2.3559746097        1.5878736220        1.0628396104
 C          1.5194836225        0.5764098387        0.6076483937
 H          1.8213016889       -0.0030393372       -0.2473948084
 N          3.6153847085        1.7809767817        0.4879752233
 S          4.2287951655        1.1548725760       -0.9242705572
 O          5.2378950530        2.1060735172       -1.3376668714
 O          3.2015263375        0.8544101650       -1.8923988359
 C          5.0454326949       -0.3601530372       -0.4420606064
 C          4.4976532104       -1.1853703702        0.5202857446
 C          5.1501973156       -2.3668634409        0.8390708084
 C          6.3306928976       -2.7056069001        0.1965035794
 C          6.8700100126       -1.8660618247       -0.7657624641
 C          6.2229029390       -0.6840898734       -1.0888886876
 H          6.6107671997        0.0011674335       -1.8250980363
 H          7.7893669085       -2.1272529133       -1.2647725525
 H          6.8323114216       -3.6267104160        0.4480677968
 H          4.7307155009       -3.0182499598        1.5890573801
 H          3.5785633278       -0.9069672887        1.0094600190
 H          4.1219071013        2.5959754417        0.7937478070
 H          2.6080973325        3.1753076681        2.4833497737
 H          0.4263091694        2.7775518595        3.5620597122
 H         -1.0534138381        0.9798749163        2.7428163853
 H         -0.8384124879       -1.4110771685        1.5632171480
 C         -0.1279715603       -1.5149473041       -0.4495785894
 C          0.8367336410       -2.6389091674       -0.2182707697
 C         -0.5736998258       -2.9334684051       -0.6306345011
 H         -0.7565625083       -3.2916999175       -1.6326835566
 H         -1.2506828802       -3.3371849349        0.1080808606
 H          1.6279382022       -2.7941640138       -0.9365956568
 H          1.1171636273       -2.8510794452        0.8022545576
 H         -0.0046137814       -0.9113278133       -1.3431164315
