  62
        -98.94162904
 C          0.7348070503        1.3782239341        0.4903112797
 C          1.2475297235        0.8388810900       -0.7162276489
 C          2.3575386116       -0.1161908411       -0.5585911200
 C          2.7714299620       -0.4796920236        0.6669947866
 C          3.9114070848       -1.4107507376        0.9816922269
 C          5.2854128873       -0.7260539173        0.9694988548
 C          5.8240162013       -0.3779533263       -0.4190316181
 H          6.8771625337       -0.1165317534       -0.2979747727
 H          5.7797428471       -1.2609937258       -1.0573673685
 C          5.1041270970        0.7908877908       -1.1062759252
 H          5.8431973518        1.4688803054       -1.5393134132
 H          4.5433571684        1.3621014515       -0.3627828563
 C          4.1544219908        0.3806565833       -2.2324578988
 H          4.7237779248       -0.0771800973       -3.0445984777
 H          3.6774702778        1.2828973524       -2.6241480372
 C          3.0461508914       -0.5900510964       -1.8027620360
 H          2.2989776947       -0.6335304185       -2.5998957050
 H          3.4579638917       -1.5884666637       -1.6560327017
 H          5.9934528808       -1.4063916019        1.4481906312
 H          5.2317658083        0.1797202069        1.5775704138
 H          3.9217186842       -2.2423264536        0.2768746081
 H          3.7291600857       -1.7997439498        1.9852203760
 O          2.1743110345       -0.0256917952        1.8003263643
 C          1.1717864298        0.9262664245        1.7386564563
 O          0.7524090810        1.2981769620        2.8527602220
 O          0.8390650565        1.1357843760       -1.8667079336
 C         -0.3188399681        2.4724628887        0.5435977662
 C         -1.7070778971        1.9010219179        0.6662081048
 C         -2.6081256613        2.4344586939        1.5811332048
 C         -3.8879799513        1.9220661334        1.6903700016
 C         -4.2849999783        0.8571552413        0.9029234468
 C         -3.3878123876        0.3097265925       -0.0084477406
 C         -2.1095072836        0.8372967782       -0.1296013177
 H         -1.4299235275        0.4195665319       -0.8572739260
 N         -3.7663528379       -0.7796800506       -0.8027574567
 S         -2.6493042672       -1.8981969152       -1.3264139405
 O         -1.9427984994       -1.4061023093       -2.4806149746
 O         -3.4344332253       -3.0965569349       -1.5460714922
 C         -1.5113627234       -2.1948787151        0.0170187006
 C         -0.2169814366       -2.5418148867       -0.3102526975
 C          0.6676145264       -2.8747618813        0.7022567709
 C          0.2530505787       -2.8301591974        2.0233487627
 C         -1.0474383744       -2.4699355958        2.3378110154
 C         -1.9449959213       -2.1642894467        1.3274833122
 H         -2.9640928453       -1.8985406040        1.5557750299
 H         -1.3660389172       -2.4286952476        3.3669207939
 H          0.9471526255       -3.0748521294        2.8117070049
 H          1.6749241053       -3.1667874184        0.4560515039
 H          0.0750145191       -2.5367565326       -1.3485330558
 H         -4.6527217825       -1.2027870527       -0.5707160217
 H         -5.2795397815        0.4473934266        0.9901065738
 H         -4.5795193379        2.3473616955        2.4012425745
 H         -2.2932282624        3.2482152426        2.2172973040
 H         -0.1147438986        3.0226941860        1.4770916132
 C         -0.2005450379        3.4738489748       -0.5976832451
 C         -1.1417504004        3.5178955625       -1.7594105232
 C         -1.1873877482        4.5971197076       -0.7222531776
 H         -0.8210456517        5.5791740035       -0.9805604451
 H         -2.0279876733        4.6012784959       -0.0451654773
 H         -0.7258827267        3.7392036513       -2.7305659227
 H         -1.9455360368        2.7988084715       -1.7925676098
 H          0.8357489810        3.7133505149       -0.8144270946
