  62
        -98.94659678
 C          2.4983834457        0.3298873191       -0.0146570430
 C          2.3282671668        1.4765187525       -0.8239694123
 C          1.6541767305        2.6129219084       -0.1892223669
 C          1.2478169810        2.5160719246        1.0899009887
 C          0.5168049129        3.5773942030        1.8664359706
 C         -0.9971758755        3.5787661151        1.6106640664
 C         -1.4273548023        4.1657829814        0.2651703928
 H         -2.5040579748        4.3377131644        0.3221341969
 H         -0.9477061261        5.1349131492        0.1206154862
 C         -1.1391647325        3.2567455208       -0.9374874853
 H         -2.0148678032        3.2356332333       -1.5910897791
 H         -0.9758019357        2.2364038029       -0.5828650317
 C          0.0502766393        3.6897884649       -1.7950753802
 H          0.1924456144        2.9459103487       -2.5832595334
 H         -0.1708576173        4.6482141710       -2.2711923649
 C          1.3724110099        3.8229570815       -1.0292722512
 H          2.1814543746        3.9133514754       -1.7588322712
 H          1.3591403267        4.7187583361       -0.4087369225
 H         -1.4639503880        4.1630440866        2.4075768911
 H         -1.3604742628        2.5503707612        1.6891166152
 H          0.6891258787        3.3637396315        2.9236016296
 H          0.9313971531        4.5597058997        1.6366577401
 O          1.4763612821        1.4140054979        1.8520469814
 C          2.0637659496        0.2834641233        1.3106188747
 O          2.1661256406       -0.6749353994        2.1034767701
 H          0.4346630744       -0.7530406914       -0.8941796414
 C          0.7311234233       -1.7593020355       -0.6403824071
 C          2.0793511272       -2.0563641877       -0.4852523393
 C          2.4380430012       -3.3646490413       -0.1883603110
 C          1.4649089281       -4.3330474563       -0.0081691470
 C          0.1223991289       -4.0118213773       -0.0855986536
 C         -0.2461084306       -2.7085033966       -0.3981796801
 N         -1.6048390080       -2.3237026458       -0.4761743170
 S         -2.1029771486       -1.0924888921        0.5779661948
 O         -1.2867832473        0.0773770843        0.4010311624
 O         -2.1972842518       -1.6260869763        1.9224462340
 C         -3.7402994894       -0.7865145632       -0.0569959975
 C         -3.8827146972        0.0867016778       -1.1176244880
 C         -5.1474620071        0.3076585111       -1.6390480704
 C         -6.2424795206       -0.3476039447       -1.0957116466
 C         -6.0841728619       -1.2206994101       -0.0301795726
 C         -4.8215979714       -1.4452844517        0.4957988087
 H         -4.6535389037       -2.1043094817        1.3323017050
 H         -6.9377086017       -1.7256556820        0.3925529749
 H         -7.2257206723       -0.1736538431       -1.5033822576
 H         -5.2733205469        0.9886389890       -2.4653138898
 H         -3.0038106663        0.5787186146       -1.5015245545
 H         -2.2178400545       -3.1152643325       -0.3191384090
 H         -0.6354203919       -4.7587812787        0.0998606116
 H          1.7565014468       -5.3462159417        0.2244843622
 H          3.4789896665       -3.6242256690       -0.0827980928
 C          3.0759968626       -0.9313660935       -0.6306218805
 H          3.2046584135       -0.7067257425       -1.7004467264
 C          4.4301883170       -1.2521632671       -0.0329123256
 C          5.4834316667       -1.9322439151       -0.8546917210
 C          5.6273302786       -0.4830955893       -0.5028322556
 H          6.3734216832       -0.1968118541        0.2230577032
 H          5.4668631585        0.2522177845       -1.2776597250
 H          5.2375091189       -2.1819476206       -1.8756836029
 H          6.1363271119       -2.6420996824       -0.3694437550
 H          4.3682915122       -1.4885921048        1.0238311362
 O          2.7131451623        1.5419298096       -2.0240798771
