  62
        -98.94334436
 C          1.1179224392        1.2870325720       -0.1307516780
 C          1.8973325867        0.7875728710        0.9459039671
 C          2.7926113096       -0.3317501207        0.6379813225
 C          2.8007805467       -0.8541276331       -0.6011791084
 C          3.6454598675       -2.0062668620       -1.0734139418
 C          5.0677318127       -1.6062342353       -1.4902712917
 C          6.0064635779       -1.2412103154       -0.3394375891
 H          5.9940107297       -2.0373022024        0.4055994380
 H          7.0164583423       -1.1986463152       -0.7520635869
 C          5.6922757335        0.1024338886        0.3335055918
 H          5.0452754214        0.6939447370       -0.3184795122
 H          6.6169900761        0.6690737726        0.4642131201
 C          5.0345242065       -0.0150382358        1.7085875605
 H          4.8214823954        0.9928642669        2.0735425518
 H          5.7291994309       -0.4859376305        2.4076538643
 C          3.7216519591       -0.8090200343        1.7130745943
 H          3.9300590592       -1.8723075933        1.5954570687
 H          3.2283183836       -0.6493240577        2.6746677750
 H          5.0050090442       -0.7683833591       -2.1885945479
 H          5.5001481889       -2.4535190328       -2.0275660021
 H          3.1403281775       -2.4262633519       -1.9456541987
 H          3.6969559849       -2.7705585439       -0.2975584888
 O          1.9975106329       -0.3880898544       -1.5907272749
 C          1.1561828128        0.6997978659       -1.3957042552
 O          0.5134026230        1.0145753190       -2.4159655705
 O          1.8519731160        1.2662053654        2.1091781743
 C          0.2426369973        2.4926627145        0.1698825537
 C         -1.1616981680        2.0626883924        0.5034457996
 C         -1.7694933614        2.4349222592        1.6961127122
 C         -3.0476115894        1.9988841287        2.0040190379
 C         -3.7428837439        1.1794153736        1.1322034289
 C         -3.1408490037        0.8017903223       -0.0605037283
 C         -1.8647300690        1.2439499934       -0.3703205084
 H         -1.4039384222        0.9447582386       -1.3002593508
 N         -3.8213037606       -0.0774894856       -0.9386847300
 S         -3.9115219948       -1.6487165792       -0.3604574099
 O         -4.2910897572       -2.4684392860       -1.4879455982
 O         -4.8017951950       -1.6679475131        0.7717622969
 C         -2.2523994269       -2.0432525138        0.1652738516
 C         -1.3852157333       -2.6194932340       -0.7407352639
 C         -0.0836315019       -2.8844382032       -0.3476762161
 C          0.3305600382       -2.5531358257        0.9329470893
 C         -0.5470337624       -1.9583556682        1.8255339870
 C         -1.8532902974       -1.7024488492        1.4423321788
 H         -2.5671173276       -1.2534756982        2.1134022732
 H         -0.2139348466       -1.6874241029        2.8145148108
 H          1.3440045820       -2.7560899793        1.2395680650
 H          0.6043184965       -3.3414410947       -1.0408441312
 H         -1.7460434415       -2.8633925884       -1.7274380083
 H         -3.4000699632       -0.0989602610       -1.8581896905
 H         -4.7274287269        0.8075686745        1.3650286336
 H         -3.5053708159        2.2953159385        2.9353977682
 H         -1.2271188770        3.0567370570        2.3930209871
 H          0.6786314626        2.9288624802        1.0822355300
 C          0.3040654872        3.5590043289       -0.9161621592
 C         -0.8563844555        3.9366904709       -1.7827809503
 C         -0.3901013499        4.8733003069       -0.7115576089
 H          0.1197217378        5.7805727838       -0.9980289694
 H         -1.0116102058        4.9727120448        0.1656953759
 H         -0.6501962611        4.1788704466       -2.8143439918
 H         -1.7955230953        3.4261567734       -1.6388938267
 H          1.2805689827        3.5962519516       -1.3889314601
