  62
        -98.93653273
 C         -1.8985578496       -1.5236657110       -0.1390169304
 C         -1.7047301800       -0.1354733209       -0.3189122099
 C         -2.9190189403        0.6934032288       -0.4789609995
 C         -4.1240387501        0.0961582384       -0.4512505396
 C         -5.4838203103        0.7324359780       -0.5625205793
 C         -5.9152941004        1.4358033974        0.7348432310
 C         -4.8276216607        2.2705258074        1.4061333013
 H         -5.2209733707        2.6176676269        2.3652997814
 H         -3.9680483204        1.6329369776        1.6212009010
 C         -4.3681742411        3.4955594779        0.6191139317
 H         -5.2247540613        4.1508367977        0.4455937920
 H         -3.6580892112        4.0374857579        1.2489498319
 C         -3.6930541511        3.2138242486       -0.7247396284
 H         -3.2161361314        4.1432866889       -1.0494486181
 H         -4.4263329011        2.9624668387       -1.4863136685
 C         -2.5958330308        2.1549774390       -0.6779352989
 H         -2.0239836808        2.2055655595       -1.6127219889
 H         -1.8829541708        2.4128081489        0.1137974011
 H         -6.2309089602        0.6677461370        1.4453105007
 H         -6.7786969307        2.0660025172        0.5150354513
 H         -6.1908684901       -0.0733040421       -0.7723875096
 H         -5.5068322106        1.4194091183       -1.4033047490
 O         -4.2640191697       -1.2476466017       -0.2598846202
 C         -3.1775282894       -2.0812034014       -0.0843491106
 O         -3.4714643590       -3.2770812116        0.1145778590
 O         -0.5738911202        0.4143701795       -0.3419281197
 C         -0.7289031393       -2.4723692007        0.0544708891
 C          0.2800845106       -1.8708234408        1.0031101793
 C         -0.1354929194       -1.5290744014        2.2882216895
 C          0.7488684405       -0.9750138115        3.1921490996
 C          2.0679813604       -0.7527802710        2.8363810196
 C          2.4969289304       -1.0984080203        1.5605664295
 C          1.6048014105       -1.6603619202        0.6553893693
 H          1.9597979005       -1.9032542197       -0.3314027108
 N          3.8430553203       -0.9278049997        1.2010914994
 S          4.3633711501       -0.3529310990       -0.2776217004
 O          3.8235799402       -1.1580806787       -1.3429206307
 O          5.8057437301       -0.3373533886       -0.1609031105
 C          3.7742434295        1.3278643509       -0.3939482297
 C          4.6953629292        2.3539932511       -0.2990774193
 C          4.2534721888        3.6648610810       -0.3676681788
 C          2.9005036987        3.9284591006       -0.5213459486
 C          1.9900611390        2.8873575004       -0.6083271589
 C          2.4242519794        1.5718670405       -0.5468222095
 H          1.7171897997        0.7603473903       -0.6071416898
 H          0.9343006489        3.0758865501       -0.7210757288
 H          2.5538369184        4.9487269606       -0.5732652981
 H          4.9622673685        4.4745630312       -0.3001144885
 H          5.7367175693        2.1016147014       -0.1803333795
 H          4.4236554203       -0.5518125199        1.9366160496
 H          2.7600834803       -0.3185956710        3.5418536298
 H          0.4098265005       -0.7096692920        4.1824010897
 H         -1.1682671093       -1.6974596819        2.5640518595
 H         -1.1605989089       -3.3614407711        0.5446852488
 C         -0.1042252592       -2.9536876900       -1.2467792711
 C         -0.9063818492       -3.0624372998       -2.5080519411
 C          0.1687872804       -2.0261614495       -2.3908534608
 H          1.0851793705       -2.1564912490       -2.9484823309
 H         -0.1238560499       -0.9945223996       -2.2762148503
 H         -0.7365378090       -3.9141551795       -3.1495214015
 H         -1.9366227993       -2.7379093301       -2.4780964109
 H          0.6249553611       -3.7410692999       -1.0786671115
