  62
        -98.94185935
 C         -1.7196492542       -0.1259869497        0.4566261962
 C         -2.8309765014       -0.8509475653        0.9602235424
 C         -4.1438345322       -0.2160601207        0.8034040882
 C         -4.2276985461        1.0139792416        0.2662516410
 C         -5.4906625876        1.8043967058        0.0563727593
 C         -6.2357960842        1.4545403079       -1.2391348093
 C         -6.9473062637        0.1008067163       -1.2354511603
 H         -7.5819404167        0.0278952959       -0.3517274949
 H         -7.6018390530        0.0810846018       -2.1091253172
 C         -6.0058733225       -1.1102411769       -1.2972168651
 H         -5.0180196072       -0.7859721911       -1.6333816337
 H         -6.3765112085       -1.8223310622       -2.0380420648
 C         -5.8575408256       -1.8659963602        0.0235152108
 H         -6.8167689932       -2.3077165695        0.3020078167
 H         -5.1431130474       -2.6797565915       -0.1257861776
 C         -5.3580989101       -1.0045912347        1.1909925557
 H         -6.1504387209       -0.3401443441        1.5347265084
 H         -5.0753502296       -1.6685721687        2.0114241123
 H         -6.9835810300        2.2334935967       -1.4052944504
 H         -5.5275968022        1.4922225039       -2.0703537248
 H         -5.1957171464        2.8550341372        0.0113213695
 H         -6.1560261574        1.6662450022        0.9091141246
 O         -3.1324678241        1.7083526149       -0.1384856818
 C         -1.8558771798        1.1569380572       -0.0761505138
 O         -0.9667687743        1.9125552022       -0.5095094020
 O         -2.7283403711       -1.9745070314        1.5195216848
 C         -0.3558198460       -0.7844663630        0.5629959420
 C          0.6696119089        0.1872334604        1.0858780117
 C          0.5685919102        0.6265433081        2.4036599405
 C          1.4794705613        1.5270517716        2.9198689678
 C          2.5241835860        1.9923435638        2.1401199108
 C          2.6324386996        1.5616666614        0.8238338894
 C          1.7090347126        0.6643248531        0.3041787601
 H          1.7875098236        0.3849569464       -0.7323703626
 N          3.6775294977        2.0143594108        0.0084191789
 S          4.3423731446        1.0152126319       -1.1474684155
 O          5.6812784885        1.5326005880       -1.3394932459
 O          3.5179129409        0.9675117164       -2.3283245018
 C          4.4204512384       -0.6012235947       -0.3931334042
 C          3.8529991389       -1.6818325252       -1.0363496551
 C          3.9173751764       -2.9304373454       -0.4381924329
 C          4.5435529034       -3.0753188881        0.7898200087
 C          5.1148798680       -1.9811234503        1.4212730725
 C          5.0559130149       -0.7316837428        0.8259616478
 H          5.4978995135        0.1353981355        1.2887048216
 H          5.6037985519       -2.0977901064        2.3749408286
 H          4.5872358038       -4.0470192157        1.2558348592
 H          3.4756067635       -3.7828065196       -0.9297642056
 H          3.3700187645       -1.5227816640       -1.9874420336
 H          4.3656627696        2.5948527502        0.4630796082
 H          3.2387286999        2.6952927795        2.5404542179
 H          1.3823600992        1.8656267762        3.9403602526
 H         -0.2458226775        0.2609722778        3.0141341393
 H         -0.4949816043       -1.5714310796        1.3230893075
 C          0.0953169944       -1.4872139788       -0.7086544145
 C         -0.8947453588       -2.1137382100       -1.6428057467
 C         -0.1228544398       -0.9033078105       -2.0708741635
 H          0.6564336432       -1.0165970980       -2.8111730136
 H         -0.6366061843        0.0435983110       -2.1344225828
 H         -0.6507830407       -3.0661313780       -2.0885942742
 H         -1.9439591681       -1.9941563992       -1.4146338479
 H          1.0245293951       -2.0284589411       -0.5569933121
