  62
        -98.93580947
 C          2.3769546838        0.4416869755        0.9114148145
 C          3.4196607348        1.0755914824        0.1895869295
 C          4.7357823886        0.4164475775        0.2556189633
 C          4.8813207889       -0.7130624333        0.9697370977
 C          6.1471800392       -1.5135143556        1.0661914861
 C          6.2075981978       -2.5913284837       -0.0253241479
 C          5.8991721444       -2.0678010618       -1.4280861682
 H          6.0010654184       -2.9081747578       -2.1181483279
 H          4.8558565684       -1.7458894566       -1.4663188747
 C          6.8027734417       -0.9153916411       -1.8884621998
 H          7.7018552956       -0.8808944171       -1.2721912527
 H          7.1206407610       -1.1084284898       -2.9152248114
 C          6.1310040023        0.4589153026       -1.8810813111
 H          6.7763439767        1.1558017642       -2.4224268837
 H          5.1820775032        0.4057176409       -2.4205157250
 C          5.8646027737        1.0639045629       -0.4969637639
 H          5.5673602886        2.1065874954       -0.6424693612
 H          6.7816098669        1.0467629894        0.0952766150
 H          7.2026942620       -3.0397245972       -0.0125576744
 H          5.4803755622       -3.3698078473        0.2168825527
 H          7.0011643905       -0.8446082418        0.9789163414
 H          6.1738515782       -1.9970718625        2.0441213071
 O          3.8600295298       -1.2880439172        1.6562798897
 C          2.5931621627       -0.7322660380        1.6382021846
 O          1.7508445285       -1.3639421320        2.3093640744
 O          3.2837708841        2.1296420839       -0.4811759465
 C          0.9557155595        0.9762510663        0.9613573838
 C          0.1227664628        0.4652384836       -0.1858809888
 C          0.5964242548        0.4729924060       -1.4941324100
 C         -0.2037161212        0.0283638489       -2.5308287596
 C         -1.4941587764       -0.4088261478       -2.2890252902
 C         -1.9744052976       -0.4259927460       -0.9849652683
 C         -1.1593663555       -0.0041807872        0.0563738347
 H         -1.5408416368       -0.0409943526        1.0664723324
 N         -3.2738987422       -0.8708566232       -0.6974315931
 S         -4.1162277144       -0.0659163774        0.5277428047
 O         -3.8564609017        1.3532948274        0.4490329213
 O         -3.8200454086       -0.6998030620        1.7879815306
 C         -5.8001709412       -0.4152865863        0.0577165076
 C         -6.5007829461        0.5164276828       -0.6849533954
 C         -7.7997025283        0.2255686344       -1.0713862114
 C         -8.3712585312       -0.9863541934       -0.7138380475
 C         -7.6555639226       -1.9111504760        0.0322501366
 C         -6.3568356698       -1.6264860092        0.4232382720
 H         -5.7657996140       -2.3091547699        1.0114179874
 H         -8.1043872759       -2.8508442422        0.3110178020
 H         -9.3822661193       -1.2102314307       -1.0155195673
 H         -8.3598401574        0.9438686382       -1.6479918730
 H         -6.0185473310        1.4486369785       -0.9318159139
 H         -3.8395361089       -1.0043130646       -1.5245276256
 H         -2.1223206595       -0.7402002851       -3.1018783928
 H          0.1760946938        0.0385556933       -3.5414858489
 H          1.5904664883        0.8449254582       -1.6902543129
 H          0.5224498335        0.5600921719        1.8860448046
 C          0.8900650157        2.4935328565        1.0846956810
 C          0.4645724527        3.3993509370       -0.0270425062
 C         -0.4385578237        3.1885553458        1.1487016050
 H         -0.5629850583        3.9936178150        1.8576075540
 H         -1.3300406009        2.5946380064        1.0016740300
 H          0.9807012717        4.3416909587       -0.1282062240
 H          0.1867341581        2.9535926671       -0.9689291874
 H          1.6658714490        2.8744693725        1.7419391085
