  62
        -98.93700066
 C         -1.9841359128       -0.5737577497        0.1509934135
 C         -2.6704491123        0.6525970676        0.3345408241
 C         -4.0544063363        0.7430783362       -0.1678400111
 C         -4.5899043748       -0.3324822556       -0.7741189024
 C         -5.9790894676       -0.4980840110       -1.3304496590
 C         -7.0363726355       -0.7062138364       -0.2341862911
 C         -6.9014327535        0.2182164966        0.9729062993
 H         -7.6338366547       -0.1008829885        1.7191721971
 H         -5.9118623216        0.0888055016        1.4149970716
 C         -7.1402892100        1.6991847016        0.6884751751
 H         -8.1446750414        1.8282134652        0.2789434489
 H         -7.1029377635        2.2237383654        1.6467769403
 C         -6.1403967902        2.3686254864       -0.2568017331
 H         -6.2846968823        3.4496309408       -0.1705782691
 H         -6.3463321244        2.1122210194       -1.2925096336
 C         -4.6750479608        2.0984287032        0.0704251013
 H         -4.0550408797        2.8081921843       -0.4910459500
 H         -4.4931261721        2.3333725696        1.1255582057
 H         -8.0246985290       -0.5839008007       -0.6804184113
 H         -6.9525398539       -1.7349310628        0.1244698499
 H         -6.2331048873        0.3510973680       -1.9579214874
 H         -5.9576840104       -1.3864498429       -1.9655082371
 O         -3.8944142028       -1.4923908188       -0.9302208777
 C         -2.5928793630       -1.6524327773       -0.4900458347
 O         -2.1207433409       -2.7795323598       -0.7361615662
 H          1.3296595594        1.2820146245        0.6166163412
 C          1.3672062388        0.6422235827       -0.2520872270
 C          0.4600988004       -0.3977733275       -0.3936321554
 C          0.5323728531       -1.1995363926       -1.5287888268
 C          1.4853922308       -0.9539128941       -2.4997790324
 C          2.3981313236        0.0759436726       -2.3483746274
 C          2.3395344296        0.8769507209       -1.2152858360
 N          3.2630329427        1.9231232965       -1.0161351725
 S          4.2341122653        1.8455885486        0.3469222806
 O          3.4237678803        1.9392991516        1.5329373347
 O          5.2295131517        2.8768814166        0.1602818235
 C          4.9986715107        0.2368757419        0.2406665843
 C          6.2408878672        0.1283621045       -0.3536890401
 C          6.8031436172       -1.1283071314       -0.5090177782
 C          6.1104064149       -2.2509383699       -0.0814744336
 C          4.8625523987       -2.1254316001        0.5095553078
 C          4.2973916434       -0.8707422934        0.6748407392
 H          3.3298306943       -0.7396674216        1.1311849710
 H          4.3216826951       -2.9978695083        0.8392514839
 H          6.5447475323       -3.2299958800       -0.2082542373
 H          7.7747084521       -1.2287450802       -0.9653855415
 H          6.7435816705        1.0284351306       -0.6691005480
 H          3.8370792950        2.1160330559       -1.8254148439
 H          3.1466119726        0.2620166085       -3.1038801849
 H          1.5248531538       -1.5778692368       -3.3796356061
 H         -0.1716197095       -2.0090748758       -1.6445852044
 C         -0.5653667004       -0.6460570453        0.6868718035
 H         -0.4901532173        0.1808181658        1.4067955653
 C         -0.2534285304       -1.9399112989        1.4140889350
 C          0.8173597057       -1.9396678096        2.4621106448
 C         -0.6219176395       -2.0740976414        2.8593769057
 H         -0.9752906001       -3.0306758282        3.2135424176
 H         -1.1006101883       -1.2294032958        3.3337081118
 H          1.4556250321       -2.8054536120        2.5493636354
 H          1.3116983882       -1.0025023114        2.6753929654
 H         -0.3544250874       -2.8191341550        0.7914398627
 O         -2.1499160179        1.6463120559        0.9122896633
