  62
        -98.93455030
 C          2.0181168612        1.0882462279        0.1378930661
 C          2.3337002308       -0.2870938169        0.0239607157
 C          3.7133280838       -0.6770490374        0.3825745118
 C          4.5852479602        0.2563152143        0.8034093646
 C          6.0255007074        0.1450463461        1.2580339679
 C          6.8458092143       -1.1074471906        0.9594978477
 C          7.1383903040       -1.3455786828       -0.5213614577
 H          7.6503617818       -2.3057103583       -0.6168766129
 H          7.8222892755       -0.5679622492       -0.8708786572
 C          5.9219054389       -1.3384051792       -1.4438536446
 H          6.2729146674       -1.5325022170       -2.4610859788
 H          5.4687600380       -0.3448694800       -1.4454995794
 C          4.8473296408       -2.3740848063       -1.1173315774
 H          5.2974060798       -3.3673797273       -1.0662279171
 H          4.1302980646       -2.3754479665       -1.9429046527
 C          4.0577933143       -2.1244219473        0.1801385374
 H          4.5841303008       -2.5173606932        1.0467467136
 H          3.1061661337       -2.6590948074        0.1053513830
 H          6.3737319417       -1.9817089488        1.3980882803
 H          7.8051761277       -0.9778983922        1.4679734786
 H          6.5369987844        1.0157715124        0.8354276862
 H          6.0076104436        0.2955213795        2.3432469403
 O          4.2217271665        1.5657976470        0.9359228722
 C          2.9518933715        2.0098368883        0.6176315008
 O          2.7788814625        3.2307118747        0.8040320922
 H         -1.0177525693       -0.2426481684       -1.3025962897
 C         -1.1913660292       -0.1052898630       -0.2468289573
 C         -0.4263697897        0.8076482646        0.4616560478
 C         -0.6463893872        0.9435750449        1.8287203922
 C         -1.6019516386        0.1781909502        2.4710169386
 C         -2.3542960569       -0.7424399754        1.7635931326
 C         -2.1382131813       -0.8887604433        0.3997881744
 N         -2.8890990050       -1.8324426367       -0.3225737850
 S         -4.5495233073       -1.8342116757       -0.1387808245
 O         -4.9014190362       -2.4412359269        1.1204124650
 O         -5.0640120262       -2.4840067762       -1.3233169018
 C         -4.9973299038       -0.1077494981       -0.1286764726
 C         -5.3721667889        0.5034264453        1.0501025755
 C         -5.6495929231        1.8613246478        1.0413816326
 C         -5.5444963156        2.5806693635       -0.1386435015
 C         -5.1703794967        1.9510719175       -1.3162730217
 C         -4.8900251517        0.5947027438       -1.3129625279
 H         -4.6039407952        0.0694451250       -2.2101011773
 H         -5.0930025732        2.5127153879       -2.2334576023
 H         -5.7570412636        3.6381444586       -0.1421905548
 H         -5.9428686973        2.3534736165        1.9546415512
 H         -5.4450589561       -0.0922572579        1.9449951394
 H         -2.6232435859       -1.9075773806       -1.2929816836
 H         -3.0920576555       -1.3607538229        2.2487679320
 H         -1.7590367759        0.2937363623        3.5327608879
 H         -0.0487719841        1.6529661502        2.3850392328
 C          0.6426806673        1.6437569944       -0.1951824045
 H          0.6244125524        2.6410602547        0.2725303028
 C          0.3962552747        1.8606893941       -1.6813757553
 C          1.4942817461        2.3700610316       -2.5655260548
 C          0.9721535195        0.9777795511       -2.7455711888
 H          0.3681361689        0.7683827550       -3.6168507379
 H          1.5912537663        0.1504157516       -2.4373637392
 H          2.4706957850        2.4973580261       -2.1205570740
 H          1.2546289091        3.1131509748       -3.3110238617
 H         -0.5961092409        2.2607015826       -1.8670336671
 O          1.5220262965       -1.1682008863       -0.3586014627
