  62
        -98.92510076
 C         -2.2271778652       -0.6545918435       -0.1579917301
 C         -3.5544301087       -1.1478388694       -0.1863426304
 C         -4.6198153330       -0.2661162388        0.3254434547
 C         -4.2766132948        0.9442104640        0.8035892673
 C         -5.1758662485        2.0273278752        1.3380077680
 C         -5.9219950761        2.7802939859        0.2251402842
 C         -6.5275140219        1.8906029371       -0.8572150891
 H         -5.7349852644        1.2986212463       -1.3186799596
 H         -6.9366281462        2.5437487322       -1.6326045342
 C         -7.6471406948        0.9646449416       -0.3876539308
 H         -8.0496608833        0.4685993892       -1.2745266994
 H         -8.4484351711        1.5647638058        0.0490641023
 C         -7.2448966933       -0.1166933769        0.6178502369
 H         -8.0625534142       -0.8421090731        0.6592732028
 H         -7.1460252636        0.2937528914        1.6191018641
 C         -5.9889723282       -0.8974950878        0.2439909328
 H         -6.0897692656       -1.2712112414       -0.7812988356
 H         -5.9353937307       -1.7949754860        0.8718027373
 H         -5.2130452067        3.4569862947       -0.2583858557
 H         -6.7061606239        3.3848314924        0.6840550543
 H         -4.5325207288        2.7349519633        1.8655717704
 H         -5.8735212378        1.6121722244        2.0591305871
 O         -2.9833812689        1.3735752253        0.8252164224
 C         -1.9301598023        0.6107920059        0.3464801476
 O         -0.8230978211        1.1720734249        0.4435441225
 O         -3.8468505723       -2.2920365740       -0.6290706650
 C         -1.1405563667       -1.5660152762       -0.7171338188
 C          0.0199940678       -1.6519467583        0.2376694005
 C         -0.0964347628       -2.5530550027        1.2952322053
 C          0.8838090177       -2.6583393647        2.2637744278
 C          2.0248278081       -1.8808315090        2.1897362159
 C          2.1561929532       -0.9824116184        1.1384795456
 C          1.1582002904       -0.8606465896        0.1840413128
 H          1.2820150955       -0.1058047431       -0.5707353475
 N          3.3417357021       -0.2173464161        1.0283091511
 S          3.7909798262        0.4544667160       -0.4342370189
 O          3.1581329834        1.7345374933       -0.6763947399
 O          3.6349773881       -0.5552095746       -1.4506067347
 C          5.5255125973        0.7121879502       -0.1053843014
 C          6.3891005187       -0.3586666668       -0.2345753759
 C          7.7324598922       -0.1764580435        0.0518099341
 C          8.1886280431        1.0670739208        0.4633404468
 C          7.3110598759        2.1332167605        0.5879865731
 C          5.9661670590        1.9564000432        0.3024591015
 H          5.2499246164        2.7593352655        0.3752747623
 H          7.6681652434        3.0998575196        0.9052198468
 H          9.2347247334        1.2070247808        0.6857373263
 H          8.4181154306       -1.0026101104       -0.0468218558
 H          5.9897081742       -1.3034856140       -0.5646143013
 H          3.5251727727        0.3915422577        1.8110361358
 H          2.8011907466       -1.9566320651        2.9341262673
 H          0.7606710312       -3.3563537532        3.0779692992
 H         -0.9855630053       -3.1657310825        1.3592053019
 H         -1.6122180373       -2.5621651638       -0.7229303538
 C         -0.9013455247       -1.2390698831       -2.1867321638
 C         -0.2826876503        0.0213094175       -2.7105076679
 C          0.4166138059       -1.2930639598       -2.8969239840
 H          0.4346237558       -1.7172010401       -3.8904379997
 H          1.3167026949       -1.4775286626       -2.3313347194
 H         -0.7414680468        0.4861176182       -3.5725258166
 H          0.1136745397        0.7383604830       -2.0079726541
 H         -1.7528729896       -1.5903967800       -2.7659722326
