  62
        -98.94406969
 C         -1.8161403491       -1.1414837498       -0.0738307587
 C         -2.2479913791       -0.0163019008       -0.8164276802
 C         -3.7045105391        0.1533895391       -0.9294601603
 C         -4.5217519091       -0.7459781001       -0.3519969990
 C         -6.0200058391       -0.6599998900       -0.3403443590
 C         -6.5226865590        0.0964767517        0.8974041400
 C         -5.8126581989        1.4287374120        1.1384298181
 H         -6.2689147688        1.8857194333        2.0192048475
 H         -4.7651249789        1.2368604523        1.3819860983
 C         -5.8847369290        2.4090056404       -0.0406564932
 H         -6.6884766490        2.1166696995       -0.7174006128
 H         -6.1291634489        3.4016934009        0.3432001354
 C         -4.5824582690        2.5461523193       -0.8317612436
 H         -3.7547811290        2.7478579502       -0.1466912439
 H         -4.6758763891        3.4109821883       -1.4942330047
 C         -4.2019598292        1.3420880080       -1.7025118419
 H         -5.0459354592        1.0651556572       -2.3376895915
 H         -3.3721532092        1.6479563271       -2.3467707324
 H         -7.5945744690        0.2687953016        0.7847125399
 H         -6.3703228189       -0.5359997371        1.7749525009
 H         -6.3568856792       -0.1602420013       -1.2464130996
 H         -6.4229388692       -1.6740036100       -0.3240820875
 O         -4.0682254091       -1.8224058991        0.3396684824
 C         -2.7106662191       -2.0410026990        0.5065181126
 O         -2.4307037091       -3.0516127980        1.1821495540
 O         -1.4637461492        0.8061236684       -1.3580322714
 C         -0.3314087591       -1.4038093796        0.1155702615
 C          0.3027027810       -0.2175240687        0.7982495298
 C         -0.2002884489        0.1742760631        2.0374712493
 C          0.3206956712        1.2686068740        2.6983100678
 C          1.3614035612        1.9916978932        2.1414553567
 C          1.8723778711        1.6078018114        0.9075469672
 C          1.3508800610        0.5014705205        0.2474350387
 H          1.7504354509        0.2394161992       -0.7175089209
 N          2.9160367311        2.3327595906        0.3237259061
 S          3.9895859709        1.6625282190       -0.7523432531
 O          5.1236800610        2.5627200190       -0.7235316345
 O          3.3792916808        1.4705806273       -2.0439539628
 C          4.4682582209        0.0826980300       -0.0719723910
 C          4.6602999608       -0.9755273412       -0.9364561395
 C          5.0663009908       -2.1983874505       -0.4265284679
 C          5.2719371309       -2.3417394287        0.9364444923
 C          5.0788314411       -1.2686286175        1.7926163509
 C          4.6775245711       -0.0425323182        1.2870231192
 H          4.5252558011        0.8055361827        1.9340503980
 H          5.2393493611       -1.3829773160        2.8525519510
 H          5.5842007409       -3.2948516781        1.3331453536
 H          5.2170913107       -3.0331420915       -1.0921786667
 H          4.4820828907       -0.8200719027       -1.9885390297
 H          3.3213414111        3.0637993713        0.8872051450
 H          1.7653748213        2.8535946638        2.6501538354
 H         -0.0838171987        1.5629225453        3.6550291174
 H         -1.0162671989       -0.3906113763        2.4681645902
 H         -0.2612158091       -2.2659005487        0.7944662927
 C          0.3096309008       -1.7734635514       -1.2044213180
 C          1.5478184207       -2.6162054315       -1.2258942370
 C          0.2381856107       -3.1972147121       -1.6652499460
 H          0.0848250306       -3.3922049035       -2.7160682458
 H         -0.2557866593       -3.9034483312       -1.0137075650
 H          2.2936020907       -2.4098269926       -1.9779834373
 H          1.9542947608       -2.9328446102       -0.2773399166
 H          0.2049621407       -0.9990616825       -1.9560514291
