  62
        -98.94083007
 C         -0.4591874170       -1.8031441205        0.6726277900
 C         -1.2876184247       -1.8714884822       -0.4714955894
 C         -2.5782745458       -1.1644280774       -0.3860591769
 C         -2.8724985280       -0.4597944577        0.7200249682
 C         -4.1277061130        0.3110910385        1.0470126610
 C         -4.7969466200        1.1055452662       -0.0805807108
 C         -3.8254030594        1.7537173606       -1.0772459355
 H         -4.0679720493        2.8132838169       -1.1709400147
 H         -2.8037479812        1.6809752185       -0.7019959123
 C         -3.8923890993        1.1312770824       -2.4730503008
 H         -4.9386098599        0.9628504308       -2.7376876985
 H         -3.4819219078        1.8406214690       -3.1952846236
 C         -3.1190719802       -0.1762272494       -2.6327955777
 H         -2.0442583506        0.0171108036       -2.5743502826
 H         -3.3191865057       -0.5684300556       -3.6328672959
 C         -3.4543732827       -1.2664846792       -1.6020736163
 H         -4.5095073324       -1.2499682755       -1.3401747701
 H         -3.2247559046       -2.2356964466       -2.0534008058
 H         -5.4883058407        0.4609506601       -0.6211352491
 H         -5.4009296391        1.8788028298        0.3972606520
 H         -4.8533233767       -0.3924505559        1.4666045835
 H         -3.8401179449        0.9903040929        1.8528316488
 O         -2.0192968381       -0.3841972997        1.7822803271
 C         -0.8089949893       -1.0531230037        1.7931812862
 O         -0.1438237390       -0.8997528915        2.8386356004
 O         -0.9781962488       -2.5052852178       -1.5134955172
 C          0.8894264238       -2.4997652323        0.6770146823
 C          1.7683406189       -1.8882331393       -0.3880599309
 C          2.4583242601       -2.6252032700       -1.3405898764
 C          3.2430098423       -1.9834352482       -2.2837331796
 C          3.3731921071       -0.6072230334       -2.2827843677
 C          2.6925641587        0.1401401777       -1.3269913315
 C          1.8915782097       -0.5038842547       -0.3995146874
 H          1.3605164947        0.0775207176        0.3401932186
 N          2.7886434074        1.5388515025       -1.2985019772
 S          2.8067750546        2.3554684007        0.1632163216
 O          3.4600096017        3.6113574718       -0.1432588270
 O          3.4152491999        1.5640215710        1.2063778392
 C          1.0977192677        2.6905577245        0.5266960630
 C          0.5403156898        2.2523475394        1.7104102388
 C         -0.7795964047        2.5719103881        1.9893810354
 C         -1.5130086764        3.3237267247        1.0858550811
 C         -0.9379529964        3.7574742451       -0.1001992848
 C          0.3793461625        3.4402977575       -0.3847897842
 H          0.8652785042        3.7659351545       -1.2894645590
 H         -1.5142150204        4.3393367029       -0.8013185965
 H         -2.5391095893        3.5721910291        1.3068724190
 H         -1.2229589661        2.2175041954        2.9065371947
 H          1.1322188399        1.6574142897        2.3894581560
 H          3.4398901384        1.9364553298       -1.9595587789
 H          3.9927378638       -0.1111442421       -3.0143376520
 H          3.7682426086       -2.5655374869       -3.0257972460
 H          2.3774466663       -3.6995357797       -1.3505268512
 H          1.3458345473       -2.2734534327        1.6526249446
 C          0.7238211992       -3.9990230853        0.5516954671
 C          1.7654770429       -4.9190604727        1.1114900179
 C          0.4314232145       -4.7998223235        1.7834429557
 H         -0.2602873863       -5.6255204819        1.7101460880
 H          0.3754762383       -4.2657060689        2.7211828883
 H          1.9896474355       -5.8310291330        0.5790308898
 H          2.6191876258       -4.4707013464        1.5974518666
 H          0.2211605850       -4.2884809169       -0.3635184953
