  62
        -98.94667213
 C         -1.1800058092       -1.2772018203        0.0816100901
 C         -1.5815277293       -0.3056541307        1.0313304904
 C         -2.4209514297        0.7860826192        0.5248443908
 C         -2.7028509898        0.8393533595       -0.7897471992
 C         -3.6160998702        1.8436375694       -1.4304569088
 C         -5.0621866001        1.3286702491       -1.4674022887
 C         -5.5640845297        0.7999482286       -0.1236691188
 H         -6.6048840997        0.4989721284       -0.2611596687
 H         -5.0023842095       -0.0994922613        0.1386781709
 C         -5.4718610098        1.8083958883        1.0301919615
 H         -5.3614839501        2.8180233585        0.6330927717
 H         -6.4074118198        1.7832328980        1.5929097316
 C         -4.3452897496        1.5291872284        2.0269736012
 H         -4.4020983593        0.4899887583        2.3607622810
 H         -4.5026208597        2.1627209781        2.9039632114
 C         -2.9228952698        1.7959030789        1.5176329711
 H         -2.8641434501        2.8044592990        1.1045183213
 H         -2.2462763996        1.7355910788        2.3748768810
 H         -5.7088396103        2.1407050790       -1.8049429484
 H         -5.1241308600        0.5193413192       -2.1984961089
 H         -3.5728901603        2.7786224893       -0.8749840086
 H         -3.2791403204        2.0169184498       -2.4539122688
 O         -2.2160621497       -0.0534032702       -1.6859534995
 C         -1.4419715594       -1.1316471301       -1.2811811998
 O         -1.0626671894       -1.8607728397       -2.2155921801
 O         -1.2579582891       -0.3560521609        2.2493257803
 C         -0.3685338488       -2.4660426602        0.5730665997
 C          1.0712080511       -2.2491622898        0.1812162095
 C          1.7031363111       -2.9311710094       -0.8495179507
 C          3.0117064210       -2.6291102290       -1.1892368408
 C          3.7156809608       -1.6515124089       -0.5093515907
 C          3.0898937408       -0.9649268694        0.5234743196
 C          1.7802716409       -1.2646958598        0.8606935997
 H          1.2882935409       -0.7217829801        1.6577746999
 N          3.7972334806        0.0498405006        1.2110393297
 S          4.0852793702        1.4396527909        0.3232813700
 O          4.9057844201        1.1023543314       -0.8107473602
 O          4.6373182300        2.3957804609        1.2549326302
 C          2.4757440999        1.9820559807       -0.2226013096
 C          1.8987034099        1.3712050308       -1.3182150997
 C          0.6305502498        1.7660486806       -1.7121205094
 C         -0.0340394804        2.7577383002       -1.0075841991
 C          0.5541989096        3.3528555801        0.0974021210
 C          1.8195180498        2.9585411403        0.4994814207
 H          2.3171795898        3.3992358402        1.3485263508
 H          0.0304633395        4.1196781498        0.6450527713
 H         -1.0161205705        3.0678533601       -1.3258449789
 H          0.1631550798        1.2904436307       -2.5604406895
 H          2.4445845601        0.6084624611       -1.8498109299
 H          3.3546538907        0.3107896603        2.0820609299
 H          4.7281892907       -1.3938991286       -0.7741338308
 H          3.4900429510       -3.1636270086       -1.9960049610
 H          1.1657189912       -3.6865850894       -1.3982835308
 H         -0.4248318787       -2.4194937605        1.6697566697
 C         -0.9429752685       -3.7878647203        0.1133667894
 C         -0.5197762781       -5.0492374603        0.8031552791
 C         -1.9054641782       -4.5149751907        1.0020137194
 H         -2.7317820382       -5.0393836108        0.5460223494
 H         -2.1476062182       -4.0646991910        1.9537587095
 H         -0.3934951880       -5.9435125302        0.2123968288
 H          0.1807720220       -4.9595113504        1.6196812590
 H         -1.1272076487       -3.8289737601       -0.9528100705
