  62
        -98.94509943
 C         -2.5611294050       -0.0338991311        0.3722899985
 C         -2.2387234718        0.5846697958       -0.8597604746
 C         -1.9572096110        2.0255860597       -0.7987422206
 C         -2.0365149468        2.6642931646        0.3823118958
 C         -1.8028246819        4.1338477429        0.5831983424
 C         -0.3499528742        4.4444857036        0.9633169686
 C          0.6887364425        3.7965707567        0.0478716647
 H          0.6808817876        2.7143604149        0.1958337159
 H          1.6698421568        4.1512071145        0.3733306694
 C          0.5080420126        4.1001710705       -1.4457197569
 H          1.4886833683        4.3172951331       -1.8741066374
 H         -0.1080944148        4.9913541196       -1.5746518342
 C         -0.0847206637        2.9445338810       -2.2553189001
 H          0.4351453863        2.0190503075       -1.9931455781
 H          0.0963813149        3.1409446381       -3.3156967792
 C         -1.5918054626        2.7130210908       -2.0834356700
 H         -1.9224874696        2.0434015622       -2.8828840391
 H         -2.1265442742        3.6602591237       -2.1845180725
 H         -0.1736216926        4.0895450685        1.9816725412
 H         -0.2201492193        5.5289529515        0.9537504180
 H         -2.0684418824        4.6605487245       -0.3316532533
 H         -2.4572693801        4.4726664617        1.3889166625
 O         -2.3431876669        2.0342538803        1.5470976443
 C         -2.5840801750        0.6704423011        1.5737587718
 O         -2.8181922936        0.2109007839        2.7127198847
 H         -0.2515773441       -0.9377653413        0.6001521458
 C         -0.4065151652       -1.8465922040        0.0368171189
 C         -1.6999389611       -2.3096765202       -0.1652076945
 C         -1.8761421382       -3.4958216049       -0.8665214066
 C         -0.7815433498       -4.1845835935       -1.3610604607
 C          0.5015270334       -3.7028240439       -1.1837565181
 C          0.6879564823       -2.5113908551       -0.4887535651
 N          1.9740937195       -1.9636509939       -0.3554039902
 S          2.2678437481       -0.6228526093        0.6081412295
 O          2.0121189715       -0.9251085270        2.0017347553
 O          1.5728797067        0.5106590970        0.0561333549
 C          4.0208842946       -0.4448536391        0.3406260225
 C          4.9072849646       -1.0419140247        1.2169202429
 C          6.2677767167       -0.9222164969        0.9803268784
 C          6.7163955227       -0.2127547804       -0.1236021358
 C          5.8149527356        0.3837005153       -0.9927333068
 C          4.4535084500        0.2676923456       -0.7614125122
 H          3.7147848119        0.7199090461       -1.4028056944
 H          6.1666619607        0.9380716493       -1.8478006549
 H          7.7754423803       -0.1208787993       -0.3057589705
 H          6.9709942374       -1.3810739070        1.6564817632
 H          4.5127935166       -1.5729887418        2.0683453739
 H          2.7202298291       -2.6429325372       -0.3382470666
 H          1.3518410511       -4.2314132816       -1.5855920863
 H         -0.9319547414       -5.1077445004       -1.9000020128
 H         -2.8704111821       -3.8799238943       -1.0268242948
 C         -2.8503510208       -1.5224215417        0.4165180186
 H         -2.9386518958       -1.7844333888        1.4824267411
 C         -4.1710990738       -1.8143084131       -0.2693303675
 C         -5.0624652977       -2.9124317316        0.2256643523
 C         -5.4443786407       -1.4805988281        0.4463824875
 H         -6.2637256972       -1.0678913836       -0.1226539796
 H         -5.3558611724       -1.0729968669        1.4433402685
 H         -4.7288524906       -3.4817570761        1.0802408591
 H         -5.6255948765       -3.4842015839       -0.4965536141
 H         -4.1312499236       -1.6249006760       -1.3359667113
 O         -2.2056553441       -0.0318022244       -1.9572962187
