  62
        -98.93044812
 C          2.1615184980        0.8242157634        0.2482477828
 C          2.6845093716       -0.1759472677        1.1035451977
 C          3.4217335908       -1.2825597645        0.4684553404
 C          3.5234546800       -1.3196346470       -0.8730560857
 C          4.1717782404       -2.3283554452       -1.7982371620
 C          5.1200519729       -3.3924439385       -1.2520467425
 C          6.4454298264       -2.8519341634       -0.7157159316
 H          6.9920671682       -3.6789463348       -0.2575021750
 H          7.0380907833       -2.4883264370       -1.5589429149
 C          6.3338746326       -1.7110091332        0.2925484895
 H          5.8701136088       -0.8447065624       -0.1839325918
 H          7.3475602085       -1.4161311733        0.5772254884
 C          5.5703427902       -2.0421149375        1.5732968271
 H          5.7000655647       -1.2018022299        2.2609786151
 H          6.0054753850       -2.9266474501        2.0424184899
 C          4.0588616345       -2.2712900253        1.4021791719
 H          3.8470419341       -3.2901877383        1.0871385062
 H          3.5823958678       -2.1233485888        2.3758325703
 H          4.6188971667       -3.9924812487       -0.4982744228
 H          5.3506765189       -4.0608555186       -2.0860111861
 H          3.3453723077       -2.8309409546       -2.3128010329
 H          4.6940346454       -1.7404815998       -2.5598579304
 O          2.9442033923       -0.3678069293       -1.6610956020
 C          2.2593470153        0.7205578207       -1.1391576208
 O          1.8011676317        1.4863371893       -2.0056210671
 O          2.5313539301       -0.1548311748        2.3548792750
 C          1.4124772299        1.9790704071        0.8877657514
 C          0.0887288515        2.1881114387        0.1956683250
 C         -0.2663372983        3.3626655030       -0.4522261294
 C         -1.5013752869        3.4754386857       -1.0672764679
 C         -2.4041557948        2.4289302296       -1.0523930925
 C         -2.0614453168        1.2495529741       -0.4027749889
 C         -0.8275719322        1.1430218678        0.2202864262
 H         -0.5569856677        0.2228598897        0.7254442279
 N         -2.9615256569        0.1605473830       -0.3964817055
 S         -4.5200763824        0.4600919503        0.1871591920
 O         -5.2149141374        1.2977554126       -0.7558048792
 O         -4.4570707080        0.9549233787        1.5461748313
 C         -5.2070306558       -1.1831646649        0.1577328009
 C         -5.6662640361       -1.6844486661       -1.0452607998
 C         -6.1812929717       -2.9703470300       -1.0813587356
 C         -6.2273037399       -3.7291799134        0.0788951913
 C         -5.7631399627       -3.2119354748        1.2788618038
 C         -5.2454803843       -1.9267754431        1.3216013310
 H         -4.8819990666       -1.4810701170        2.2338634469
 H         -5.8025484210       -3.8031285461        2.1796327138
 H         -6.6301315465       -4.7292574185        0.0485966064
 H         -6.5450768852       -3.3758511122       -2.0116770541
 H         -5.6183650734       -1.0555904031       -1.9187873636
 H         -2.5736917936       -0.6273896994        0.1067818295
 H         -3.3684225750        2.5119121230       -1.5261021654
 H         -1.7628087292        4.3924169901       -1.5738679530
 H          0.4309569914        4.1829765310       -0.4958061269
 H          1.2016202656        1.6304478072        1.9132899172
 C          2.2291914756        3.2543542763        1.0301395573
 C          3.7200469566        3.2012136274        1.1749091620
 C          3.1079648914        3.7771227540       -0.0648987534
 H          3.1604200291        4.8462376160       -0.2112488504
 H          3.1585704485        3.2089961930       -0.9802089078
 H          4.1920388538        3.8713404628        1.8776542337
 H          4.1943223389        2.2327372290        1.1085913899
 H          1.7152039537        3.9948049418        1.6358740439
