  62
        -98.93760847
 C         -0.2136879903       -2.1466650296        0.8876262806
 C         -1.2614712900       -2.2813566404       -0.0576622097
 C         -2.4813029405       -1.4996104410        0.2194525398
 C         -2.5431232212       -0.7251775508        1.3155604596
 C         -3.6392490018        0.2501914387        1.6347047591
 C         -3.4618634123        1.5146096086        0.7679483189
 C         -4.5937270222        1.7570799277       -0.2301388615
 H         -5.4710665225        2.1283392673        0.3047548382
 H         -4.2599032025        2.5436001978       -0.9107631815
 C         -5.0229424313        0.5386148573       -1.0532329213
 H         -5.6151815713        0.9128025868       -1.8912359416
 H         -5.6872863711       -0.0911413029       -0.4584814114
 C         -3.8866928906       -0.3320690822       -1.6059273508
 H         -4.1675709102       -0.6597653625       -2.6096348408
 H         -2.9665292109        0.2455449783       -1.7085647907
 C         -3.5973871901       -1.6017710218       -0.7818039305
 H         -4.5119598201       -1.9313660522       -0.2801021407
 H         -3.2893114995       -2.3971042018       -1.4672330502
 H         -2.5186957221        1.4331888590        0.2216666592
 H         -3.3775873330        2.3915832688        1.4123150687
 H         -4.6091437615       -0.2071852619        1.4526040789
 H         -3.5611521223        0.4992154989        2.6932760591
 O         -1.5423370215       -0.6691679900        2.2324585699
 C         -0.3534147310       -1.3499051394        2.0263866303
 O          0.4970421686       -1.1723369287        2.9222374805
 H          0.6082749495       -0.8536783795       -1.1718855795
 C          1.6118645194       -0.7501428089       -0.7876748193
 C          2.0855116596       -1.6365689884        0.1696260411
 C          3.3828996194       -1.4749967476        0.6412204714
 C          4.1831978889       -0.4517061072        0.1642270914
 C          3.6939486087        0.4499685523       -0.7639526689
 C          2.3944783089        0.3034386415       -1.2344704093
 N          1.8336360286        1.2256423510       -2.1427571696
 S          0.4687529580        2.0496986303       -1.6202309002
 O         -0.6402307415        1.1443522297       -1.4802000103
 O          0.3020041877        3.1282789800       -2.5695669704
 C          0.9439926672        2.7037235909       -0.0325922002
 C          0.7793829574        1.9135984210        1.0860516600
 C          1.2324123768        2.3759535616        2.3109034800
 C          1.8395439260        3.6194498319        2.3944596199
 C          1.9930067559        4.4062668818        1.2620215198
 C          1.5487001465        3.9440107413        0.0338687497
 H          1.6448023064        4.5228398011       -0.8706292204
 H          2.4619879153        5.3744766620        1.3329994397
 H          2.1935651556        3.9757496123        3.3489363599
 H          1.1106280269        1.7468021717        3.1789562101
 H          0.3033334879        0.9505388208        0.9918488400
 H          2.5013773383        1.8911407813       -2.5080609496
 H          4.3072430583        1.2651398726       -1.1169536490
 H          5.1901764188       -0.3404648066        0.5357617716
 H          3.7561969296       -2.1455960672        1.4008756616
 C          1.1822590701       -2.7232182288        0.7032896610
 H          1.5407554300       -2.9768690984        1.7145108812
 C          1.2345331210       -3.9938122990       -0.1294471387
 C          1.6890807414       -4.0125516990       -1.5546285485
 C          2.5545777515       -4.6098213783       -0.4883663282
 H          2.6486308921       -5.6840845682       -0.4412957979
 H          3.4508852111       -4.0738330377       -0.2165302780
 H          1.1679923720       -4.6655787394       -2.2375725785
 H          1.9949458710       -3.0782549189       -2.0005042987
 H          0.4327520913       -4.6774202294        0.1268851013
 O         -1.2054408193       -3.0020726905       -1.0864520895
