  62
        -98.94686751
 C          2.0019968698        1.1368466488       -0.5264491355
 C          1.4843784117       -0.0083926865       -1.1777770354
 C          2.2522894457       -1.2514636275       -1.0078620519
 C          3.3660609345       -1.2489775634       -0.2556489296
 C          4.2067324385       -2.4547266836        0.0468274192
 C          3.7495258938       -3.1450726009        1.3390020918
 C          2.2446665667       -3.4089106374        1.4058933461
 H          2.0494764840       -3.9403995971        2.3404333320
 H          1.7073679217       -2.4587158421        1.4658936384
 C          1.6866266472       -4.2227129965        0.2301433644
 H          1.0063853573       -4.9808349774        0.6241919987
 H          2.4973908424       -4.7452117468       -0.2801745018
 C          0.8917227432       -3.3944704990       -0.7811103994
 H          0.1635592253       -2.7804809235       -0.2444779564
 H          0.3357299273       -4.0822226063       -1.4246423050
 C          1.7266643074       -2.4830092927       -1.6902944374
 H          2.5434592303       -3.0552115563       -2.1357606622
 H          1.0770044408       -2.1282398722       -2.4956757212
 H          4.2888858881       -4.0896422894        1.4339905143
 H          4.0222861456       -2.5111080300        2.1860513863
 H          4.1493777205       -3.1501752437       -0.7883165095
 H          5.2417606423       -2.1295295873        0.1671086062
 O          3.8381229055       -0.1318033690        0.3545795427
 C          3.1654726142        1.0722475736        0.2466090544
 O          3.7041847701        2.0123760022        0.8667322710
 O          0.4413405997       -0.0199011324       -1.8833588104
 C          1.3280416762        2.5017429942       -0.5478236752
 C          0.3181071237        2.5806661949        0.5733509995
 C          0.4366752155        3.5433955400        1.5680912481
 C         -0.4603018563        3.5787025649        2.6208786944
 C         -1.4718383672        2.6410359288        2.7109333065
 C         -1.6004380491        1.6725273530        1.7195649162
 C         -0.7256151867        1.6676313831        0.6437126031
 H         -0.8290406619        0.9174217144       -0.1217776367
 N         -2.6176136212        0.7131157024        1.7989654612
 S         -2.3977144054       -0.8792003863        1.3089207386
 O         -3.1596864698       -1.6542468740        2.2688882421
 O         -1.0006115101       -1.2140279343        1.1906732873
 C         -3.2511002677       -0.9411639418       -0.2524310551
 C         -4.6330566193       -0.9505769019       -0.2038931845
 C         -5.3491921165       -0.9741988632       -1.3882773343
 C         -4.6745279305       -0.9882726680       -2.6003981200
 C         -3.2895253763       -0.9809349869       -2.6317667002
 C         -2.5650954402       -0.9570666645       -1.4485393533
 H         -1.4859736521       -0.9369752804       -1.4566335775
 H         -2.7588875382       -0.9887754426       -3.5705636099
 H         -5.2302470589       -1.0055470015       -3.5248340484
 H         -6.4270549406       -0.9810473917       -1.3646005813
 H         -5.1155297985       -0.9529190519        0.7594231133
 H         -3.1646722657        0.7557975053        2.6462086410
 H         -2.1562724332        2.6499296870        3.5459775770
 H         -0.3588185355        4.3304301307        3.3890781206
 H          1.2514942606        4.2511349819        1.5245160875
 H          2.1230371892        3.2281833735       -0.3286273273
 C          0.7001786360        2.8703425115       -1.8765856636
 C          0.5005417763        4.3186251982       -2.2039811165
 C          1.5427159949        3.5223005261       -2.9293174150
 H          1.3702286435        3.2588190480       -3.9618186757
 H          2.5812520553        3.7068528314       -2.6945760846
 H         -0.3914866133        4.6059947306       -2.7388054446
 H          0.8336473812        5.0471741449       -1.4802548777
 H         -0.0539262450        2.1700528715       -2.2082627821
