  62
        -98.93447296
 C         -2.3269173810       -0.8097039107       -0.1534672086
 C         -3.5619138840       -1.1831528713        0.4243980400
 C         -4.7639002225       -0.5205932783       -0.1106782788
 C         -4.6259406895        0.3761684347       -1.1028604520
 C         -5.7059701871        1.1985096554       -1.7499559133
 C         -5.8272420640        2.5705682274       -1.0652452135
 C         -6.7575889336        2.6057015101        0.1466476007
 H         -6.6496369030        3.5888851940        0.6103822191
 H         -7.7916523108        2.5150210310       -0.1923365729
 C         -6.4943611973        1.5314932352        1.2051982950
 H         -6.9360941753        1.8712596003        2.1439981864
 H         -5.4198207686        1.4339842101        1.3706119959
 C         -7.0933226390        0.1648855765        0.8406779126
 H         -7.6903285392       -0.2029007786        1.6777473102
 H         -7.7792302788        0.2888454743        0.0029583210
 C         -6.0702605975       -0.9326692329        0.5118096466
 H         -5.7852122087       -1.4522743418        1.4320400198
 H         -6.5432956543       -1.6801573208       -0.1336823792
 H         -6.1949839779        3.2948795090       -1.7948549070
 H         -4.8233336094        2.8859334490       -0.7692568471
 H         -5.3989262320        1.3531520404       -2.7863456152
 H         -6.6533135822        0.6679432392       -1.7400565222
 O         -3.4155668138        0.7041236708       -1.6341299831
 C         -2.2402429595        0.1343425107       -1.1760250957
 O         -1.2135306780        0.5425939259       -1.7509653322
 H          1.5548157738       -0.8356410392       -0.3645747171
 C          1.1648664259       -0.2093506613        0.4196308869
 C         -0.1233891282       -0.3889656131        0.8950857134
 C         -0.5839815728        0.4490005400        1.9086244824
 C          0.2240090082        1.4416520896        2.4265087141
 C          1.5121890234        1.6158679932        1.9510496791
 C          1.9797322766        0.7892142273        0.9367947223
 N          3.2685539444        0.9690137698        0.4109948721
 S          4.1291617826       -0.3659834240       -0.1529955291
 O          3.6859791764       -0.6914639996       -1.4850796672
 O          4.0782028830       -1.4372536043        0.8170167226
 C          5.7701640724        0.3289510487       -0.2225684496
 C          6.0823426305        1.1707130422       -1.2738095576
 C          7.3449168028        1.7393398420       -1.3243674080
 C          8.2694056108        1.4585870816       -0.3288697475
 C          7.9426171706        0.6102302774        0.7181374769
 C          6.6806422514        0.0393746287        0.7758326638
 H          6.3838044621       -0.6308676641        1.5663873103
 H          8.6646402002        0.3914107610        1.4882322719
 H          9.2517307722        1.9018439421       -0.3715975026
 H          7.6033108703        2.3973182037       -2.1383428639
 H          5.3344741103        1.3518509071       -2.0283847151
 H          3.8458034886        1.5757693696        0.9767593330
 H          2.1452560823        2.3914792819        2.3545104720
 H         -0.1478547327        2.0826983959        3.2117634900
 H         -1.5895197492        0.3085707703        2.2820489821
 C         -1.0511441566       -1.4516860146        0.3608863473
 H         -1.3619617159       -2.0882484852        1.2029055004
 C         -0.4251002289       -2.3275719598       -0.7026539038
 C          0.4953728369       -3.4419093427       -0.3070766770
 C         -0.8713076691       -3.7511211157       -0.8382933213
 H         -0.9576015927       -4.1718298450       -1.8288196193
 H         -1.6211397319       -4.1040466018       -0.1453908161
 H          0.6790134771       -3.5862138398        0.7471374397
 H          1.3549962473       -3.6435190820       -0.9290291897
 H         -0.2016555124       -1.7852499938       -1.6153620445
 O         -3.6568036411       -2.0266901839        1.3571660746
