  62
        -98.94346969
 C         -2.2888315826       -0.5816859068        0.0308460603
 C         -3.1944114914       -0.2460984570        1.0736867877
 C         -4.1347501675        0.8436534812        0.7976369068
 C         -4.0853080239        1.4793439622       -0.3865960402
 C         -4.9592221825        2.6263570531       -0.8155543754
 C         -6.3199247407        2.1963178083       -1.3808758164
 C         -7.3179505374        1.6731576680       -0.3470513016
 H         -7.4073948373        2.3932897771        0.4668316137
 H         -8.2901691056        1.6171612797       -0.8407540922
 C         -6.9735739050        0.2897207780        0.2222341527
 H         -6.2446397542       -0.2004735664       -0.4273610243
 H         -7.8691687136       -0.3356891009        0.2259949121
 C         -6.4288429382        0.3093524544        1.6505158813
 H         -6.1847182837       -0.7164286546        1.9380333317
 H         -7.2000544053        0.6754034103        2.3318235827
 C         -5.1686076239        1.1650779197        1.8342111463
 H         -5.4244951139        2.2237994556        1.8000679568
 H         -4.7394855880        0.9387479280        2.8132103555
 H         -6.7596497671        3.0687957959       -1.8696335934
 H         -6.1552400618        1.4347162047       -2.1466854849
 H         -5.1106478658        3.3050633399        0.0242742205
 H         -4.4135082955        3.1573139972       -1.5985231686
 O         -3.1893135188        1.1476125094       -1.3513225530
 C         -2.2872293020        0.1062786521       -1.1823060451
 O         -1.5614674588       -0.0781303589       -2.1817049182
 O         -3.2165492183       -0.8384580944        2.1847189354
 C         -1.3415909744       -1.7375765323        0.3058695015
 C          0.0474603490       -1.2628565951        0.6620544018
 C          0.5867418618       -1.5239004604        1.9163337780
 C          1.8702830463       -1.1133884308        2.2312340279
 C          2.6400156720       -0.4326554531        1.3052039077
 C          2.1091639763       -0.1630337489        0.0505592790
 C          0.8243435141       -0.5816397587       -0.2643335330
 H          0.4149173192       -0.3637075271       -1.2397978136
 N          2.8753334217        0.5486337119       -0.8914154920
 S          4.3994721844       -0.0504792501       -1.2660688672
 O          4.6978408973        0.4587095562       -2.5867640951
 O          4.4588960750       -1.4848520550       -1.1016401595
 C          5.4715392104        0.7413984548       -0.0850452643
 C          5.4876717114        2.1218586826       -0.0441773400
 C          6.3209967432        2.7544932791        0.8643925566
 C          7.1215367431        2.0004559911        1.7097129482
 C          7.0967301101        0.6153642931        1.6536269521
 C          6.2646995288       -0.0237492914        0.7474661290
 H          6.2074500056       -1.0978462279        0.6711926845
 H          7.7205748415        0.0312737292        2.3109579869
 H          7.7689649084        2.4957272207        2.4160087255
 H          6.3430215970        3.8314066587        0.9110054508
 H          4.8527454748        2.6696261053       -0.7205185298
 H          2.3636945482        0.7593270150       -1.7368467322
 H          3.6397470054       -0.1090546286        1.5446783736
 H          2.2760840839       -1.3250003075        3.2086318362
 H         -0.0120474301       -2.0455332872        2.6486917234
 H         -1.7572511750       -2.2375380178        1.1912161736
 C         -1.2843680361       -2.7448401019       -0.8270962835
 C         -0.8273390259       -4.1413240060       -0.5352432117
 C         -2.2669568091       -3.8750554868       -0.8561289637
 H         -2.6533651748       -4.1967547322       -1.8116154181
 H         -2.9869735754       -3.9316700862       -0.0527188101
 H         -0.2193364096       -4.6472960705       -1.2695455318
 H         -0.5713298450       -4.3799802744        0.4858651545
 H         -0.9994638258       -2.3107656631       -1.7769325061
