  62
        -98.93736062
 C         -2.1399863541       -0.7745802909        0.4926047517
 C         -1.9903612049        0.0071800362       -0.6758455146
 C         -1.9744152373        1.4714601547       -0.4970369548
 C         -2.1028870340        1.9745568257        0.7442638994
 C         -2.1498009386        3.4225775326        1.1518590260
 C         -3.5009795734        4.0878617034        0.8326462210
 C         -4.1126360684        3.7030843136       -0.5127023407
 H         -4.2011598353        2.6164327633       -0.5672513503
 H         -5.1251461213        4.1137582565       -0.5467614605
 C         -3.3612248705        4.2129565906       -1.7398314431
 H         -3.3555048564        5.3052983077       -1.7263609583
 H         -3.9208993510        3.8929862736       -2.6222471351
 C         -1.9186131584        3.7282806121       -1.8863775305
 H         -1.2660187935        4.2343408890       -1.1800358579
 H         -1.5773203262        4.0152432561       -2.8855143073
 C         -1.7317506429        2.2170050784       -1.7862845436
 H         -2.3604914395        1.7258688262       -2.5376386951
 H         -0.6975857958        1.9754345527       -2.0639355826
 H         -3.3731538717        5.1703289407        0.8815339908
 H         -4.2085989044        3.7954096750        1.6120246132
 H         -1.3259393700        3.9573596297        0.6876922870
 H         -1.9934328634        3.4502245750        2.2326816949
 O         -2.2651737018        1.1811581518        1.8430671062
 C         -2.2518161796       -0.1966358515        1.7538740062
 O         -2.3549845754       -0.7892779149        2.8503334321
 O         -1.8761922741       -0.4926404559       -1.8266778442
 C         -2.0687469415       -2.2867729993        0.4043917461
 C         -0.7611411514       -2.7103150155       -0.2243946737
 C         -0.6364202534       -3.8485721771       -1.0106999197
 C          0.5903260394       -4.1939327686       -1.5525779546
 C          1.7075259427       -3.4078559455       -1.3431755516
 C          1.5909555327       -2.2615743701       -0.5623147948
 C          0.3733551373       -1.9450140783        0.0139209253
 H          0.3038407825       -1.0698901451        0.6443352697
 N          2.6908175771       -1.4038850675       -0.3947553875
 S          2.6141026237       -0.0205176943        0.5467321029
 O          2.4659004805       -0.3508276830        1.9496954088
 O          1.6325178853        0.8744254606       -0.0122807735
 C          4.2505531695        0.6207531492        0.2471137817
 C          4.4977256293        1.2375674049       -0.9649788327
 C          5.7703106556        1.7199440909       -1.2250077957
 C          6.7700645055        1.5781285604       -0.2737631872
 C          6.5071065198        0.9587549174        0.9385704180
 C          5.2359847541        0.4730438147        1.2041307274
 H          4.9819811182       -0.0085112285        2.1347544527
 H          7.2851244161        0.8528501313        1.6772334980
 H          7.7595157971        1.9555537313       -0.4779617948
 H          5.9772053355        2.2041495126       -2.1657400774
 H          3.6861470098        1.3312301399       -1.6679900611
 H          3.5882810989       -1.8638464006       -0.3633302318
 H          2.6577612158       -3.6663403653       -1.7833066218
 H          0.6737517586       -5.0844235705       -2.1569412735
 H         -1.5006996626       -4.4641108590       -1.2005399426
 H         -2.0839700715       -2.6528624615        1.4428266758
 C         -3.2787427080       -2.8355427961       -0.3257547878
 C         -3.8692537142       -4.1571455949        0.0619417022
 C         -4.5925569499       -2.8874745431        0.3926715246
 H         -5.4903867090       -2.6433583571       -0.1548166696
 H         -4.6043489294       -2.5562352626        1.4213008876
 H         -4.2756933567       -4.7874986726       -0.7146454594
 H         -3.4027190486       -4.6961492289        0.8728369085
 H         -3.2899435876       -2.5535835671       -1.3722903559
