  62
        -98.94639337
 C         -1.6073920705       -1.4027557890       -0.0614790900
 C         -2.6672335206       -0.9045105284        0.7306220194
 C         -3.2952270000        0.3321474916        0.2506218287
 C         -2.8446218594        0.9163839611       -0.8750063713
 C         -3.3965027387        2.1690648511       -1.5016068819
 C         -2.8579628685        3.4722198311       -0.8948008422
 C         -3.3797599189        3.8074400318        0.5026119875
 H         -3.0969201887        4.8410341417        0.7120323872
 H         -4.4691362889        3.7617286521        0.5061666071
 C         -2.8207996597        2.9081243420        1.6141621580
 H         -1.9346655397        2.3841488015        1.2469330986
 H         -2.5006157898        3.5246010921        2.4574439679
 C         -3.8149494702        1.8795568425        2.1531346180
 H         -4.6450004203        2.3939115329        2.6424571975
 H         -3.3072544708        1.2708841326        2.9061839484
 C         -4.3841487701        0.9363515323        1.0852639181
 H         -4.9053091106        0.1207002427        1.5927021882
 H         -5.0971891997        1.4680865823        0.4556094376
 H         -1.7672223385        3.4243828507       -0.8653609217
 H         -3.1385065279        4.2852762110       -1.5683012326
 H         -3.1145934983        2.1376454006       -2.5561592318
 H         -4.4849329787        2.1611884415       -1.4347706524
 O         -1.8219497992        0.4039482405       -1.6092649107
 C         -1.1707291098       -0.7587944596       -1.2206831600
 O         -0.2457197196       -1.1078368602       -1.9740822595
 H          0.1902416792       -0.5393400591        1.5652865404
 C          0.9617248291       -1.1949014595        1.1790402210
 C          0.5912816290       -2.3688088296        0.5339397912
 C          1.5937463089       -3.2003193101        0.0533023519
 C          2.9259820689       -2.8508845205        0.1976703023
 C          3.2882203191       -1.6711130104        0.8206048821
 C          2.2929008792       -0.8379155699        1.3150800714
 N          2.6467788093        0.3789873702        1.9366570511
 S          3.5108919601        1.4596746996        0.9879611611
 O          4.8695284900        0.9937415491        0.8716285618
 O          3.3320922903        2.7471439199        1.6215385706
 C          2.7165561607        1.4340950493       -0.6069211292
 C          1.5800025110        2.1964846296       -0.7887501800
 C          0.9326756315        2.1509479894       -2.0118675002
 C          1.4183392516        1.3341243189       -3.0201970397
 C          2.5568695513        0.5712805586       -2.8198846390
 C          3.2159434808        0.6201574688       -1.6028053988
 H          4.1078265106        0.0468214686       -1.4105748782
 H          2.9259493814       -0.0687454118       -3.6046312086
 H          0.8998455620        1.2872797587       -3.9643784999
 H          0.0437985718        2.7393843697       -2.1759880908
 H          1.2327049709        2.8201223900        0.0209436597
 H          1.8554971193        0.8551831606        2.3465040906
 H          4.3194365291       -1.3742805807        0.9241730324
 H          3.6934702089       -3.5048865709       -0.1872901671
 H          1.3328854588       -4.1193117002       -0.4451245278
 C         -0.8807467811       -2.6605761891        0.3778419008
 H         -1.2930971716       -2.9106325586        1.3669801107
 C         -1.1741385011       -3.8018043994       -0.5732939190
 C         -1.1806017318       -5.2169630292       -0.0795803085
 C         -2.4699133014       -4.5412344489       -0.4347098692
 H         -2.9869007511       -4.8496857890       -1.3309470793
 H         -3.1290343616       -4.2388920684        0.3660883604
 H         -0.8144850318       -5.9937585695       -0.7338111181
 H         -0.9680435322       -5.3838752189        0.9656125717
 H         -0.8127399406       -3.6084473698       -1.5770419689
 O         -3.0661940212       -1.4618922679        1.7894467195
