  62
        -98.93976177
 C         -2.4535950602       -0.2671678902        0.2473549304
 C         -3.6067694003       -0.1829604993        1.0634033802
 C         -4.7737874602        0.4647937601        0.4549959893
 C         -4.6862960400        0.9607088988       -0.7928513712
 C         -5.7821506199        1.6702848780       -1.5411097521
 C         -6.7679618599        0.7278328973       -2.2454324712
 C         -7.7306415800       -0.0172722617       -1.3198976005
 H         -8.2265954101        0.6973225290       -0.6622803613
 H         -8.4995324699       -0.4660602424       -1.9519225901
 C         -7.0745613501       -1.1228345109       -0.4809769392
 H         -6.1031139301       -1.3782391113       -0.9104318788
 H         -7.6894866601       -2.0246755209       -0.5218503283
 C         -6.8848975903       -0.7707133293        0.9944502704
 H         -7.8599894803       -0.6414845388        1.4693407102
 H         -6.3798762703       -1.6070799488        1.4844257614
 C         -6.0514037703        0.4940998410        1.2384780192
 H         -6.6319204702        1.3818045007        0.9882341082
 H         -5.7900692104        0.5338801021        2.2988911792
 H         -6.1991517698        0.0066870966       -2.8368334703
 H         -7.3584395098        1.3327978465       -2.9373358819
 H         -6.3262644800        2.3258545087       -0.8606033428
 H         -5.2921717298        2.2853405772       -2.2989780327
 O         -3.5484369800        0.8868992379       -1.5335395310
 C         -2.4117077000        0.2601568984       -1.0432793602
 O         -1.4532035299        0.2418437976       -1.8383471301
 H          1.3446151499       -1.1413974208       -0.2346841983
 C          1.1662761898       -0.2035534603        0.2677869507
 C         -0.0700702302        0.0513403304        0.8376400803
 C         -0.2639697403        1.2683609711        1.4868491190
 C          0.7455104297        2.2090651911        1.5434096381
 C          1.9727177498        1.9595621005        0.9538136485
 C          2.1810257398        0.7463465698        0.3140435698
 N          3.4186996799        0.4882385691       -0.3004644198
 S          4.8166282098        0.9415911399        0.5308013699
 O          4.7250778697        0.5348070214        1.9153602603
 O          5.0528915399        2.3453625497        0.3032995384
 C          6.0438706699       -0.0257734910       -0.3251992490
 C          6.4642692398       -1.2238488704        0.2204424723
 C          7.3987334999       -1.9818981912       -0.4675771667
 C          7.8909145600       -1.5331209725       -1.6839420472
 C          7.4586531001       -0.3284756431       -2.2189241985
 C          6.5257277600        0.4352008577       -1.5357922994
 H          6.1677092101        1.3808271073       -1.9080799905
 H          7.8456741702        0.0178533459       -3.1636313788
 H          8.6181053100       -2.1248059131       -2.2172290765
 H          7.7387907898       -2.9173668308       -0.0532821257
 H          6.0601597997       -1.5292731194        1.1723232526
 H          3.4853851199       -0.4599748513       -0.6441126588
 H          2.7696319098        2.6849736205        0.9879766378
 H          0.5776949897        3.1485444717        2.0490324570
 H         -1.2229981603        1.4673923116        1.9460972686
 C         -1.2098471103       -0.9368734096        0.8026139912
 H         -1.4607814104       -1.2010304985        1.8408028115
 C         -0.9047551102       -2.2068599405        0.0371161026
 C         -0.1479103503       -3.3206324798        0.6955644039
 C         -1.6132526403       -3.4702148800        0.4201769839
 H         -1.9260133302       -4.1438193409       -0.3635068554
 H         -2.2998890504       -3.4208483091        1.2525995737
 H          0.5443172898       -3.8974808804        0.1007768946
 H          0.1634666596       -3.1753955587        1.7190222938
 H         -0.7408157201       -2.0270185016       -1.0195596576
 O         -3.6556737804       -0.6220699680        2.2440460806
