  62
        -98.94093502
 C         -1.7339807274       -1.0712480118       -0.0173318383
 C         -2.1623736906        0.1378457983       -0.6190645236
 C         -3.6178265784        0.2864985490       -0.7903739342
 C         -4.4401338565       -0.6966591823       -0.3842151908
 C         -5.9385472399       -0.6490602408       -0.4519832571
 C         -6.5341313739       -0.0771892782        0.8422139110
 C         -5.8807529557        1.2271976687        1.2990459711
 H         -6.4010617125        1.5524800230        2.2025180494
 H         -4.8437462069        1.0285010961        1.5793166467
 C         -5.9145890726        2.3533321026        0.2564227230
 H         -6.6699142403        2.1359314248       -0.4997030415
 H         -6.2097950081        3.2806664495        0.7518945244
 C         -4.5742637790        2.6233140370       -0.4302090892
 H         -3.7933105251        2.7503779134        0.3240090692
 H         -4.6562991092        3.5665558532       -0.9770454732
 C         -4.1082112015        1.5557820414       -1.4282868114
 H         -4.9066289607        1.3457817553       -2.1431745492
 H         -3.2545469007        1.9655270545       -1.9766006166
 H         -7.6028319328        0.0832534624        0.6889540205
 H         -6.4118432785       -0.8176149553        1.6360868809
 H         -6.2397528912       -0.0414549628       -1.3030775174
 H         -6.3089994567       -1.6657918173       -0.5935654214
 O         -3.9926582370       -1.8409395414        0.1926909810
 C         -2.6401515780       -2.0464347056        0.4092215668
 O         -2.3731598776       -3.1187717753        0.9865579677
 H          1.7472231347        0.2084233646       -0.8325161351
 C          1.4385050669        0.5207788023        0.1501458368
 C          0.4157226212       -0.1385244010        0.8119696743
 C          0.0045355287        0.3423710581        2.0529081977
 C          0.5948803997        1.4600610516        2.6088544117
 C          1.6259332125        2.1086074434        1.9512735738
 C          2.0430538600        1.6370782446        0.7130254466
 N          3.0835273323        2.2706105699        0.0212762496
 S          4.1346317672        1.3856996323       -0.9216223529
 O          5.3412491609        2.1852126778       -0.9593462283
 O          3.5480080871        1.0812982852       -2.2020186040
 C          4.4355294036       -0.1230626221       -0.0155480847
 C          4.8772255969       -0.0329821729        1.2897084208
 C          5.1072537207       -1.1986977800        2.0018688181
 C          4.8960494672       -2.4296027378        1.3995948317
 C          4.4612458131       -2.5040676810        0.0856353046
 C          4.2272891966       -1.3405978109       -0.6302214703
 H          3.8839054201       -1.3527405137       -1.6525747758
 H          4.2998735774       -3.4623520518       -0.3823160465
 H          5.0722921543       -3.3365812635        1.9560506936
 H          5.4483260837       -1.1447001321        3.0231087744
 H          5.0404021327        0.9378114045        1.7282462586
 H          3.5419850216        3.0210627869        0.5150998422
 H          2.0911656826        2.9811216706        2.3839956399
 H          0.2567423306        1.8272582088        3.5662200232
 H         -0.7982751916       -0.1674171299        2.5687801765
 C         -0.2659919335       -1.3602055806        0.2482236522
 H         -0.2686248604       -2.1338530817        1.0340076670
 C          0.4781726279       -1.9536153879       -0.9383643539
 C         -0.2217551641       -2.8095305878       -1.9498620605
 C          0.2848414533       -1.4540111042       -2.3371301747
 H          1.1483910638       -1.3853627141       -2.9835464106
 H         -0.4288185480       -0.6597599147       -2.4901088270
 H          0.2918221879       -3.6805104470       -2.3280880709
 H         -1.2881089415       -2.9448847701       -1.8409041696
 H          1.4845022947       -2.2576493674       -0.6657385417
 O         -1.3879939835        1.0542481962       -0.9969816535
