  62
        -98.93675243
 C          2.6371701420        1.2795651216        0.2254800444
 C          2.5680936687        0.3439512553       -0.8326928820
 C          3.5567235830       -0.7506432292       -0.8074182643
 C          4.4578057509       -0.8112498216        0.1901436612
 C          5.5877885169       -1.7847188129        0.4524900384
 C          5.6365226953       -3.1354148369       -0.2579107032
 C          4.5096443628       -4.0986305562        0.1131889400
 H          4.6016579348       -4.9868852476       -0.5157834559
 H          4.6464265101       -4.4109563673        1.1515619686
 C          3.0935889994       -3.5426939964       -0.0177570797
 H          2.3962542887       -4.3369548062        0.2620144780
 H          2.9512179954       -2.7270136332        0.6942966782
 C          2.7068673207       -3.0556191567       -1.4130622536
 H          2.8826182421       -3.8492117474       -2.1418545595
 H          1.6345338884       -2.8427128741       -1.3998818755
 C          3.4234245439       -1.7804890820       -1.8917608741
 H          4.3936788224       -2.0084406507       -2.3262618414
 H          2.8116708656       -1.3239994768       -2.6752527802
 H          6.5800108556       -3.6046445778        0.0342176885
 H          5.6761423019       -2.9949197155       -1.3340473074
 H          6.5108896719       -1.2408531056        0.2232051603
 H          5.5889789644       -1.9500896061        1.5344922971
 O          4.4999861430        0.1313949775        1.1775256771
 C          3.5930582793        1.1721015911        1.2362239124
 O          3.7408952279        1.9264185486        2.2186480914
 H         -0.4734953556        1.8288711727       -1.3278039371
 C         -0.6658150952        1.5504879187       -0.3040940224
 C          0.2893258205        1.7979434743        0.6682483980
 C          0.0229536350        1.4109478842        1.9792584433
 C         -1.1672986877        0.7881333803        2.3020219566
 C         -2.1113388283        0.5232463337        1.3242051716
 C         -1.8546916620        0.9031438970        0.0141607593
 N         -2.7763099922        0.6022882833       -0.9954509084
 S         -4.4213426066        0.6518094578       -0.7256404547
 O         -5.0134112576        0.7481719640       -2.0419451648
 O         -4.7799982180        1.6905285361        0.2123589282
 C         -4.7945294361       -0.9475088933       -0.0358904889
 C         -4.2592679318       -2.0654965351       -0.6449188923
 C         -4.5553533947       -3.3161711149       -0.1269493569
 C         -5.3807824394       -3.4282319749        0.9819685801
 C         -5.9136815160       -2.2966492798        1.5797468851
 C         -5.6196717503       -1.0424854701        1.0675256917
 H         -6.0051611079       -0.1353636565        1.5051269507
 H         -6.5547441966       -2.3857656723        2.4420581233
 H         -5.6086788002       -4.4032584501        1.3828861868
 H         -4.1406320286       -4.1979614326       -0.5884842620
 H         -3.6206654267       -1.9394050659       -1.5034951925
 H         -2.5155832079        0.9180464099       -1.9167618180
 H         -3.0392845929        0.0332944858        1.5697860447
 H         -1.3620772502        0.4982366811        3.3234860754
 H          0.7696774442        1.5976933075        2.7390137742
 C          1.6302220626        2.4127194253        0.3469722223
 H          1.9484326616        3.0060786635        1.2145192209
 C          1.6241412645        3.3053013563       -0.8758234738
 C          0.9505250977        4.6417460645       -0.8021409216
 C          2.4451762179        4.5579627977       -0.8712403400
 H          2.9369316088        4.8544077224       -1.7856620947
 H          3.0121728806        4.7814011640        0.0207375784
 H          0.4144114686        4.9999058609       -1.6679385665
 H          0.5005397710        4.9209519669        0.1388106494
 H          1.5665235736        2.7582901711       -1.8083621827
 O          1.7302745680        0.4077620903       -1.7700415272
