  62
        -98.94292809
 C         -2.3950082702       -0.1512454952        0.4221570710
 C         -1.8499729283        0.7265681350        1.3946691448
 C         -1.7284232802        2.1353185096        1.0128485839
 C         -2.0883512226        2.5177436157       -0.2253795159
 C         -2.0194996512        3.9164666883       -0.7752414177
 C         -0.6281397143        4.3044702752       -1.2950977614
 C          0.4114910155        4.5974674591       -0.2122609032
 H          1.2526566647        5.0909108761       -0.7033492901
 H         -0.0042243189        5.3006055256        0.5108991926
 C          0.9316208530        3.3487009422        0.5135199862
 H          0.7062594255        2.4638188114       -0.0867003323
 H          2.0205231167        3.4026211617        0.5951393135
 C          0.3809552768        3.1595892865        1.9270120279
 H          0.7264181058        3.9765779347        2.5648774406
 H          0.7829373177        2.2260232836        2.3267652586
 C         -1.1490317329        3.0927676670        2.0110818413
 H         -1.5760777529        4.0855013964        1.8688281068
 H         -1.4204018043        2.7336303915        3.0071950583
 H         -0.7466391489        5.1996053309       -1.9107828377
 H         -0.2598040873        3.5007815889       -1.9384694876
 H         -2.7239952350        3.9584135331       -1.6089202401
 H         -2.3383964042        4.6290587573       -0.0134819042
 O         -2.5901583643        1.6480180957       -1.1379473653
 C         -2.7200025157        0.2926079799       -0.8599531502
 O         -3.1454685496       -0.3729118396       -1.8247313476
 O         -1.4879256504        0.3410901691        2.5389801030
 C         -2.4614144332       -1.6194795004        0.8155659761
 C         -1.0911672453       -2.2100244550        0.5995956009
 C         -0.4155986385       -2.8977186731        1.5995317038
 C          0.8936102984       -3.3099433340        1.4132128762
 C          1.5641275008       -3.0090298239        0.2407071411
 C          0.8901407826       -2.3332306969       -0.7674930634
 C         -0.4340090299       -1.9694805793       -0.6001210668
 H         -0.9433727208       -1.4355218286       -1.3900407112
 N          1.6204245019       -1.9042354433       -1.9180822538
 S          2.0046761514       -0.2639269124       -1.7416585199
 O          0.8175103374        0.5460972905       -1.5694110982
 O          2.8259714070        0.0767397616       -2.8832553774
 C          2.9745420401       -0.2691204609       -0.2532586088
 C          2.3430892278       -0.0740677275        0.9593241950
 C          3.0965740605       -0.1289614619        2.1208912265
 C          4.4584546620       -0.3799061887        2.0499317818
 C          5.0768338507       -0.5750642543        0.8239278446
 C          4.3291197204       -0.5228875079       -0.3415701240
 H          4.7626578258       -0.6666987713       -1.3175032611
 H          6.1358562119       -0.7702932751        0.7734306325
 H          5.0393714494       -0.4237794820        2.9576076445
 H          2.6102182429        0.0179878626        3.0721638787
 H          1.2798372281        0.1128661096        0.9790541989
 H          1.0859222561       -2.0003607101       -2.7725176857
 H          2.5985924422       -3.2759741175        0.0993645399
 H          1.4061653974       -3.8398493070        2.2006982701
 H         -0.9132460457       -3.0801351102        2.5404153984
 H         -2.6525645293       -1.6193222757        1.9007366654
 C         -3.5800098159       -2.4038181925        0.1513498753
 C         -3.3382630193       -3.4540183911       -0.8873903282
 C         -3.7705728557       -3.8531148207        0.4897351428
 H         -4.7742755990       -4.2235419810        0.6309944462
 H         -3.0323716758       -4.3146352059        1.1280029895
 H         -4.0449344324       -3.5235039208       -1.7001902824
 H         -2.3202688587       -3.6570668442       -1.1821309927
 H         -4.4778208252       -1.8079372624        0.0280262932
