  62
        -98.93301710
 C          2.0346856789        1.3105610111       -0.0585558680
 C          2.3585720097        0.0589442118       -0.6386065092
 C          3.7720804698       -0.3520202777       -0.5412121092
 C          4.6564651793        0.4530372221        0.0723851619
 C          6.1073614493        0.1430376124        0.3083436220
 C          6.2519511194       -0.8363262988        1.4906143810
 C          6.8034915101       -2.2099952581        1.1080472297
 H          7.8791801001       -2.1265651275        0.9390743601
 H          6.6550081601       -2.8719073191        1.9639324989
 C          6.1834323707       -2.8558370971       -0.1348123012
 H          6.4737060512       -3.9086119070       -0.1240992822
 H          6.6245691608       -2.4215068859       -1.0332735806
 C          4.6557570307       -2.7678335276       -0.2462961215
 H          4.2890713613       -3.7157569973       -0.6456992727
 H          4.2036781704       -2.6441822488        0.7381574185
 C          4.1441681205       -1.6591739268       -1.1849352405
 H          4.8791629607       -1.4819651757       -1.9753516101
 H          3.2237160008       -2.0068528067       -1.6637966512
 H          6.9103601490       -0.4020095593        2.2444439516
 H          5.2727157993       -0.9541334897        1.9595879906
 H          6.6080058789        1.0851921124        0.5327840331
 H          6.5451930398       -0.2781701964       -0.5939230683
 O          4.3041972986        1.6394720313        0.6322297731
 C          2.9952847084        2.0884802808        0.5946567932
 O          2.8148566178        3.1792806101        1.1712995543
 O          1.5298846901       -0.6869013479       -1.2209223302
 C          0.6195893087        1.8676568205       -0.0597190878
 C         -0.3546878610        0.8060115796        0.3847225308
 C         -0.4194358912        0.4706329181        1.7335939804
 C         -1.2818798909       -0.5146799927        2.1770599891
 C         -2.0951066404       -1.1885598121        1.2834590082
 C         -2.0357321501       -0.8624326407       -0.0650271215
 C         -1.1815587704        0.1400595902       -0.5058864101
 H         -1.1278940502        0.3688723413       -1.5586529199
 N         -2.8510605196       -1.5497746100       -0.9784639124
 S         -4.4586443896       -1.7895641311       -0.5966938832
 O         -4.5850943094       -2.8784515522        0.3398715956
 O         -5.1285217791       -1.9659685901       -1.8659227735
 C         -4.9738275704       -0.2652167022        0.1740159183
 C         -4.9773733707        0.8798745487       -0.5980682405
 C         -5.3289737214        2.0838976279       -0.0106772793
 C         -5.6656245518        2.1230082263        1.3340445407
 C         -5.6608926515        0.9644654355        2.0946889794
 C         -5.3099980708       -0.2430521337        1.5118974882
 H         -5.2945500306       -1.1666706643        2.0669763273
 H         -5.9255951218        0.9978135843        3.1392315494
 H         -5.9348046323        3.0626134457        1.7901888916
 H         -5.3367713616        2.9864305785       -0.6005762683
 H         -4.7178578304        0.8112218199       -1.6422889405
 H         -2.7270013794       -1.2658074589       -1.9383307121
 H         -2.7586589401       -1.9741915427        1.6065329771
 H         -1.3183605211       -0.7653396939        3.2264215989
 H          0.2255077384        0.9878410677        2.4310738912
 H          0.6302915081        2.6570079597        0.7087483531
 C          0.2097185988        2.5415106017       -1.3613510072
 C          1.1956846187        3.3643427629       -2.1343510960
 C          0.6784859694        2.0806426733       -2.7073117575
 H         -0.0145022404        2.1342447239       -3.5348154777
 H          1.3404948698        1.2304351137       -2.7496183282
 H          0.8633309284        4.2954514033       -2.5679165151
 H          2.2132770086        3.3899611130       -1.7721128657
 H         -0.8029640314        2.9299256812       -1.3071154471
