  62
        -98.94106542
 C          2.0463120040        0.3946976558        0.0196315917
 C          3.1358056162        1.1427079679        0.5382428514
 C          4.3499807776        0.3858390977        0.8685171691
 C          4.3483491111       -0.9512483571        0.7229709833
 C          5.5291349106       -1.8432087970        0.9720651644
 C          6.3563170396       -2.0375809948       -0.3065225273
 C          6.6939474463       -0.7328840372       -1.0283505530
 H          7.3037370080       -0.9903843688       -1.8970749879
 H          5.7715481431       -0.2853366687       -1.4057292482
 C          7.4400809192        0.2951675382       -0.1663306335
 H          7.8755065952       -0.1976007056        0.7037202703
 H          8.2645526972        0.7091949220       -0.7506263128
 C          6.5845326421        1.4762060746        0.2960133681
 H          7.2517162540        2.2390197602        0.7060442037
 H          6.0742522143        1.9174026975       -0.5640822308
 C          5.5359490864        1.1606111924        1.3701267522
 H          5.1389868273        2.1116304019        1.7371903591
 H          6.0101066066        0.6412757058        2.2054252172
 H          7.2782859320       -2.5601905259       -0.0452171613
 H          5.7894326968       -2.6716221355       -0.9923682867
 H          5.1616506829       -2.8143049598        1.3082623703
 H          6.1476378149       -1.4088423503        1.7551591341
 O          3.2683239972       -1.6422639768        0.2828634550
 C          2.0940509710       -0.9963489991       -0.0912434467
 O          1.2070894977       -1.7724342296       -0.4905196445
 O          3.0930644408        2.3889496125        0.7173643021
 C          0.7900303916        1.1672995131       -0.3458622309
 C         -0.4159314527        0.5301253043        0.2938404818
 C         -0.6360095015        0.7135765180        1.6557818244
 C         -1.7125547046        0.1172794932        2.2850057742
 C         -2.5911155552       -0.6767535726        1.5694762718
 C         -2.3796658570       -0.8659737995        0.2101441464
 C         -1.3072756875       -0.2516497071       -0.4237372587
 H         -1.1417025202       -0.4232945478       -1.4757233122
 N         -3.2619646661       -1.6768621956       -0.5194452003
 S         -4.9030313371       -1.5313938779       -0.2551311118
 O         -5.2754581032       -2.2423403235        0.9429500460
 O         -5.5259453632       -1.9872834209       -1.4781055303
 C         -5.1824232394        0.2166781646       -0.0289116967
 C         -4.8632489058        1.0650862082       -1.0708394678
 C         -5.0450722351        2.4281892659       -0.9053854972
 C         -5.5393544812        2.9180353148        0.2941070926
 C         -5.8585994993        2.0533878428        1.3291086373
 C         -5.6775527060        0.6886657860        1.1692756467
 H         -5.9121429522       -0.0183935797        1.9482200434
 H         -6.2446057670        2.4368156977        2.2598187817
 H         -5.6773133746        3.9801951851        0.4210179016
 H         -4.7990865162        3.1031237327       -1.7094360956
 H         -4.4879771376        0.6507281927       -1.9927230225
 H         -3.0346864226       -1.7676297469       -1.4976850300
 H         -3.4225973711       -1.1691677733        2.0470416423
 H         -1.8675539784        0.2655784751        3.3428971348
 H          0.0575398398        1.3225895140        2.2191247234
 H          0.9389654230        2.1548435363        0.1202014474
 C          0.6131974058        1.4186328190       -1.8361150726
 C          1.8017639160        1.6919237825       -2.7072942485
 C          1.0135235983        0.4312454373       -2.8895113788
 H          0.3904870225        0.3419640056       -3.7680200092
 H          1.4491964093       -0.5024352752       -2.5702771876
 H          1.7265279999        2.4626533146       -3.4594104468
 H          2.7782797830        1.6206438395       -2.2506139432
 H         -0.2772536100        2.0064006024       -2.0383763116
