  62
        -98.94528966
 C         -2.4719316493       -1.1709499312       -0.0337317196
 C         -3.1657997791       -0.3422193214        0.8791842607
 C         -3.7420605593        0.8889053286        0.3235161110
 C         -3.5755421396        1.1601222489       -0.9840763890
 C         -4.0508875099        2.4090993089       -1.6671257787
 C         -2.9660359699        3.4952819390       -1.6500922688
 C         -2.3481009696        3.7303261788       -0.2714866789
 H         -1.7884919495        2.8387673388        0.0244079209
 H         -1.6190623197        4.5374682089       -0.3745367489
 C         -3.3606056194        4.0887244686        0.8258032414
 H         -4.2936135195        4.4239007286        0.3715930916
 H         -2.9635047893        4.9236430485        1.4068906214
 C         -3.6553051591        2.9583591884        1.8136030213
 H         -2.7143522890        2.5584408384        2.2010278510
 H         -4.2031660890        3.3811710783        2.6598400815
 C         -4.4876084092        1.7918827685        1.2658681613
 H         -4.7785746990        1.1654687983        2.1141959413
 H         -5.3940892693        2.1765425885        0.7948936215
 H         -2.1663970501        3.1993465091       -2.3336315890
 H         -3.4019446401        4.4258461690       -2.0180632786
 H         -4.9496924998        2.7701978288       -1.1711716985
 H         -4.2899204801        2.1646025591       -2.7033364687
 O         -2.9023130798        0.3409215690       -1.8310200493
 C         -2.3136649296       -0.8311752510       -1.3779006196
 O         -1.7007645298       -1.4686931508       -2.2538982698
 O         -3.2881720989       -0.6140330016        2.1051038707
 C         -1.8049698191       -2.4345392013        0.4833341201
 C         -0.3105983991       -2.2838387211        0.3357260098
 C          0.5015902208       -3.1930354610       -0.3271815206
 C          1.8574726407       -2.9476824209       -0.4668603808
 C          2.4313236708       -1.8016988809        0.0518893592
 C          1.6292570709       -0.8915264711        0.7285071495
 C          0.2753319609       -1.1422342912        0.8708436798
 H         -0.3496312290       -0.4269875613        1.3930184400
 N          2.2052379009        0.2827481989        1.2601877396
 S          2.8707692806        1.3390773591        0.1289948496
 O          2.8446600007        2.6400899590        0.7626253598
 O          2.2046785603        1.2346060592       -1.1495964103
 C          4.5586535906        0.7917245592       -0.0065454708
 C          5.0581117204        0.3931712894       -1.2306158310
 C          6.3770521504       -0.0268908205       -1.3102778314
 C          7.1670740106       -0.0411530206       -0.1709344215
 C          6.6499029809        0.3637831292        1.0508811586
 C          5.3332354208        0.7866105091        1.1372560390
 H          4.8922401110        1.1136239489        2.0639702891
 H          7.2673508410        0.3509147591        1.9344771085
 H          8.1920925506       -0.3702998405       -0.2358167018
 H          6.7806097102       -0.3420658703       -2.2591101015
 H          4.4028101302        0.4141832795       -2.0868784209
 H          1.5678918810        0.7947502087        1.8549437198
 H          3.4846828507       -1.6042682909       -0.0634104710
 H          2.4753562607       -3.6588011108       -0.9934751311
 H          0.0712106907       -4.0862008710       -0.7488776906
 H         -2.0420041989       -2.4711516114        1.5569982301
 C         -2.3705050892       -3.6682487212       -0.1846369200
 C         -2.3177466189       -4.9910462113        0.5179490798
 C         -3.6257800590       -4.2771266114        0.3619981102
 H         -4.3514192891       -4.6710741813       -0.3335532797
 H         -4.0646760088       -3.8129571215        1.2332062403
 H         -2.1473155590       -5.8804731212       -0.0693104604
 H         -1.8692994687       -5.0169418414        1.4994716797
 H         -2.2515437094       -3.6517296110       -1.2618013500
