  62
        -98.93722532
 C          1.7663755921        0.5382282886        0.5641205548
 C          3.0449061251        0.4460254258        1.1613440189
 C          4.1994027410        0.4713671008        0.2481031339
 C          3.9895837808        0.5826739279       -1.0749879961
 C          5.0092355167        0.6717685801       -2.1829980579
 C          6.2239142092       -0.2630026568       -2.1077200305
 C          5.9488811425       -1.6351504077       -1.4753608790
 H          4.8737899258       -1.7892074491       -1.3672109096
 H          6.3231654258       -2.4146552614       -2.1417132103
 C          6.6297176900       -1.8134941665       -0.1161372753
 H          7.6455017795       -1.4170436049       -0.1789906371
 H          6.7092717119       -2.8818416252        0.0994221082
 C          5.9126236649       -1.1653938509        1.0676163623
 H          6.5555110277       -1.2652690915        1.9455534967
 H          4.9896558054       -1.7100321239        1.2850930053
 C          5.5480541782        0.3176748365        0.8904306229
 H          5.4602343717        0.7620262418        1.8857139323
 H          6.3201913477        0.8500689079        0.3404087482
 H          6.5807249200       -0.3987148933       -3.1301612251
 H          7.0274444850        0.2257536954       -1.5585268611
 H          4.4498000810        0.4705673079       -3.0998290938
 H          5.3583704481        1.7069564042       -2.2402397549
 O          2.7383656877        0.6700500371       -1.6082729530
 C          1.6006389641        0.6481072978       -0.8157900783
 O          0.5332974519        0.7311179503       -1.4493925588
 O          3.2157858934        0.3543806216        2.4071992204
 C          0.5415164691        0.5314048827        1.4565642495
 C         -0.3896799226       -0.6107817738        1.1300525726
 C          0.1119797711       -1.8180900526        0.6539474963
 C         -0.7330083671       -2.8643919333        0.3337926779
 C         -2.1014895142       -2.7385758037        0.4965027558
 C         -2.6114323006       -1.5504271407        0.9979036416
 C         -1.7612443614       -0.4975767889        1.3120976910
 H         -2.1788348740        0.4213035725        1.6947178162
 N         -4.0115392404       -1.4243631031        1.1586529378
 S         -4.8737356145       -1.1896580064       -0.2610746935
 O         -6.2621262559       -1.0949134270        0.1285622298
 O         -4.5338662115       -2.2395182213       -1.1852734706
 C         -4.3021028047        0.3923684916       -0.8531984226
 C         -3.0583652969        0.4682346771       -1.4472682413
 C         -2.5583844838        1.7116863470       -1.8013291643
 C         -3.3117303100        2.8506848646       -1.5618324906
 C         -4.5645839790        2.7574876390       -0.9730346682
 C         -5.0624008120        1.5186981398       -0.6037774224
 H         -6.0259059598        1.3998981832       -0.1346305756
 H         -5.1475503599        3.6465111124       -0.7926618880
 H         -2.9166254539        3.8169776033       -1.8345891448
 H         -1.5710659080        1.7702147778       -2.2318984677
 H         -2.4881091220       -0.4292534500       -1.6241335825
 H         -4.2717909481       -0.7018980219        1.8168494497
 H         -2.7782413537       -3.5336187502        0.2299858305
 H         -0.3221663148       -3.7871516984       -0.0477083176
 H          1.1800220414       -1.9263044830        0.5232763590
 H          0.9272653206        0.3766636486        2.4761566956
 C         -0.1513463646        1.8797870618        1.3967915789
 C         -0.7932019627        2.4679964959        2.6171687135
 C          0.4819952753        3.0491296965        2.0869255882
 H          0.4514184043        4.0133928631        1.6027127612
 H          1.3950362877        2.8644868748        2.6341983174
 H         -1.7021438007        3.0386014646        2.4972151448
 H         -0.7431391512        1.9010058234        3.5348364976
 H         -0.6205956739        2.0598770724        0.4359019018
