  62
        -98.94485447
 C          1.9430153129        0.5555767036       -0.6043831252
 C          3.0195475476        1.3235689563       -0.0975825695
 C          4.3520540911        0.7260017091       -0.2330526520
 C          4.4873501301       -0.4740924399       -0.8262504757
 C          5.7825791614       -1.2024743249       -1.0632981892
 C          6.2677181533       -2.0214013798        0.1407755812
 C          6.8137327043       -1.1991937634        1.3088198828
 H          7.3136106402       -1.8960088891        1.9846006600
 H          7.5694248038       -0.5047146839        0.9404374308
 C          5.7437735887       -0.4297097697        2.0959636440
 H          4.7578945080       -0.8416561812        1.8678711147
 H          5.9087226178       -0.5695081158        3.1666882739
 C          5.7243519475        1.0761882803        1.8334604574
 H          6.6602782667        1.5203950745        2.1793117235
 H          4.9088251491        1.5147426414        2.4140069385
 C          5.5169556874        1.4583022228        0.3619313493
 H          5.2977114187        2.5276417380        0.3126801005
 H          6.4233757737        1.2603261810       -0.2096289393
 H          5.4446991848       -2.6495389656        0.4896536615
 H          7.0623381985       -2.6820102222       -0.2136902991
 H          5.6055768634       -1.8866133419       -1.8960219553
 H          6.5551825126       -0.4910657162       -1.3563915480
 O          3.4285382683       -1.1756141034       -1.3113198893
 C          2.1313931710       -0.6933408639       -1.1960539397
 O          1.2617640498       -1.4563537225       -1.6576088725
 O          2.8727287360        2.4532434670        0.4406548473
 C          0.5342392260        1.1124296190       -0.4862901795
 C         -0.2929965811        0.1929077235        0.3764156414
 C          0.0890268566        0.0139703922        1.7048707881
 C         -0.6058700410       -0.8466144159        2.5306932792
 C         -1.7041054837       -1.5409184173        2.0523043274
 C         -2.0945742436       -1.3703214865        0.7300853710
 C         -1.3935038634       -0.5017503937       -0.0979402629
 H         -1.7056704843       -0.4074502723       -1.1237330684
 N         -3.1890675145       -2.0845305810        0.2182054721
 S         -4.3410724962       -1.3485174934       -0.7404418524
 O         -5.4296719265       -2.2995093120       -0.7868941176
 O         -3.7767785113       -0.9602859902       -2.0070030153
 C         -4.8399131727        0.0909860228        0.1871495694
 C         -5.8175131445       -0.0563814993        1.1522518587
 C         -6.1738110593        1.0404238151        1.9196438247
 C         -5.5427878332        2.2585014510        1.7161746714
 C         -4.5625863717        2.3893219576        0.7447056439
 C         -4.2043427714        1.2967498254       -0.0295680759
 H         -3.4504558825        1.3628697844       -0.7962508933
 H         -4.0735876957        3.3372419053        0.5860131953
 H         -5.8176488821        3.1118304358        2.3158740808
 H         -6.9391876934        0.9428849258        2.6726351528
 H         -6.2898484309       -1.0182553806        1.2694932023
 H         -3.6241305483       -2.7110079570        0.8794137996
 H         -2.2454881507       -2.2204704506        2.6929124405
 H         -0.2945109158       -0.9782695762        3.5559517388
 H          0.9494456933        0.5547065715        2.0748583958
 H          0.6478485529        2.0699131304        0.0427634029
 C         -0.0551433460        1.3815667046       -1.8535290957
 C         -1.1193147034        2.4239181719       -2.0164181771
 C          0.2629414253        2.6757382681       -2.5381709663
 H          0.4235703317        2.6676523222       -3.6058173572
 H          0.8901068067        3.3770721285       -2.0073653946
 H         -1.9121851513        2.2429484553       -2.7273531783
 H         -1.4261838939        2.9634150879       -1.1328945950
 H         -0.1107531455        0.4945063943       -2.4747057564
