  62
        -98.94408053
 C          1.4673441767        1.1994321155       -0.0229170525
 C          2.5154702274        0.7596424976        0.8140404457
 C          3.0472275236       -0.5879518395        0.5518335103
 C          2.5145499075       -1.3271005659       -0.4396283299
 C          2.7958945481       -2.7482652920       -0.8810890292
 C          4.0639190721       -3.4717908566       -0.4350840572
 C          5.3632166990       -2.8867025641       -0.9871473885
 H          6.1982246293       -3.4250370929       -0.5336024864
 H          5.3956055811       -3.0672711377       -2.0644162668
 C          5.5571059201       -1.3891251607       -0.7635916466
 H          6.5217995896       -1.1089952794       -1.1950500664
 H          4.7882008484       -0.8350940819       -1.3057163811
 C          5.5535954065       -0.9405404885        0.6965822929
 H          6.2834457861       -1.5226673429        1.2623674499
 H          5.8697385323        0.1057140488        0.7193810910
 C          4.1949631952       -1.0267682278        1.4151442412
 H          4.2178071705       -0.3393984377        2.2661805990
 H          4.0156380566       -2.0243839490        1.8103641178
 H          4.1021089118       -3.5293395533        0.6488355261
 H          3.9802939647       -4.4983069022       -0.8026054380
 H          1.9275541593       -3.3296209803       -0.5491467512
 H          2.7581191886       -2.7335742992       -1.9751101574
 O          1.5062083556       -0.8558733335       -1.2279416892
 C          0.9487986840        0.3931779587       -1.0331830806
 O          0.0209857436        0.6717017992       -1.8182304003
 O          2.9798020193        1.4585075187        1.7572863219
 C          0.8323873838        2.5553014308        0.2211536576
 C         -0.6528751553        2.3972124107        0.4374553056
 C         -1.5957267478        3.2846220221       -0.0669672770
 C         -2.9471424618        3.0706017857        0.1443674944
 C         -3.3880775952        1.9593832814        0.8393729075
 C         -2.4518973133        1.0724791643        1.3573696903
 C         -1.0998628662        1.3121005591        1.1808544231
 H         -0.3883894716        0.6111310875        1.5930012101
 N         -2.8410655225       -0.0950493287        2.0503062806
 S         -2.4763578650       -1.5513228547        1.2998036758
 O         -3.0419190021       -2.5689350902        2.1607629580
 O         -1.0603382635       -1.6402391653        1.0545331233
 C         -3.4007193161       -1.4913608829       -0.2250672471
 C         -2.8995766898       -0.7834883045       -1.2989305654
 C         -3.6755145196       -0.6780533507       -2.4440514122
 C         -4.9263018378       -1.2729223167       -2.4955885642
 C         -5.4136348036       -1.9810613107       -1.4069869432
 C         -4.6477027204       -2.0871045492       -0.2579822621
 H         -4.9818328816       -2.6290315014        0.6121661676
 H         -6.3853107487       -2.4462339183       -1.4491938520
 H         -5.5228186933       -1.1847681938       -3.3899172555
 H         -3.2880749069       -0.1262305038       -3.2854704793
 H         -1.9203111287       -0.3325071154       -1.2448425560
 H         -3.8181572750       -0.1016819285        2.3120385787
 H         -4.4427177689        1.7755729055        0.9794054045
 H         -3.6668998845        3.7681691862       -0.2556309281
 H         -1.2716363459        4.1425244602       -0.6332008190
 H          1.2833028996        2.9294971490        1.1528589915
 C          1.1751000439        3.5102133292       -0.9045303761
 C          1.3302308102        4.9771063619       -0.6378882521
 C          2.5360026043        4.1367995777       -0.9288727984
 H          3.0333433879        4.2542579111       -1.8799480018
 H          3.2037781735        3.8960692266       -0.1145026073
 H          1.0020858997        5.6759553390       -1.3925210028
 H          1.1865968129        5.3195299751        0.3757439933
 H          0.7492944566        3.2012353289       -1.8528239482
