  62
        -98.93809168
 C         -2.0403480987       -0.7588186944        0.6009639403
 C         -1.9858161277       -0.0079974180       -0.5967304899
 C         -1.9787771558        1.4561823099       -0.4483265332
 C         -1.9780072481        1.9946613957        0.7824362412
 C         -1.9013859652        3.4511652427        1.1683958507
 C         -2.7572776650        4.4436852917        0.3686669825
 C         -4.0904276126        3.8832640148       -0.1481829246
 H         -4.2967910844        2.9198541579        0.3209644571
 H         -4.8946451178        4.5643216204        0.1359459878
 C         -4.1224288990        3.7273378745       -1.6704722761
 H         -5.1641465772        3.6905239724       -1.9976357280
 H         -3.6680778308        4.6117809291       -2.1219580651
 C         -3.4324868921        2.4777089242       -2.2165762566
 H         -4.0148467506        1.5893717675       -1.9577908327
 H         -3.4213749290        2.5478889998       -3.3068010777
 C         -1.9943493229        2.2472103469       -1.7240032039
 H         -1.4743679621        1.6297461480       -2.4615933910
 H         -1.4534838423        3.1848125828       -1.6200867156
 H         -2.9492626269        5.2936698237        1.0256704384
 H         -2.1806770478        4.8220179606       -0.4742111724
 H         -2.1919435640        3.4811138404        2.2215446671
 H         -0.8511249950        3.7543874395        1.1159467973
 O         -2.0146447044        1.2316855170        1.9133145830
 C         -2.0347026812       -0.1506175901        1.8530339786
 O         -2.0542781534       -0.7158297396        2.9675898409
 O         -1.9399670222       -0.5348370581       -1.7393886638
 C         -1.9808059893       -2.2748794417        0.5430696837
 C         -0.7052052726       -2.6826105162       -0.1557206314
 C         -0.6382891199       -3.6763087519       -1.1232412796
 C          0.5619092798       -3.9558028290       -1.7546846104
 C          1.7083689551       -3.2463650830       -1.4491251722
 C          1.6554142964       -2.2649782220       -0.4648758481
 C          0.4615153773       -2.0109690977        0.1871533799
 H          0.4331601881       -1.2464097452        0.9513821504
 N          2.8010144002       -1.5321741402       -0.1067420725
 S          2.5944147600        0.0752331201        0.3718621067
 O          2.2711037940        0.1017257855        1.7778035765
 O          1.6781625349        0.7570333546       -0.5135518377
 C          4.2534540204        0.6859585413        0.1325848937
 C          5.2003366033        0.4387944025        1.1086513159
 C          6.4988920188        0.8798850392        0.9091278074
 C          6.8276733511        1.5556862769       -0.2567528922
 C          5.8663036937        1.7984868317       -1.2262782188
 C          4.5658613012        1.3589105092       -1.0334762519
 H          3.7823396140        1.5304786716       -1.7542717050
 H          6.1232867004        2.3273837858       -2.1298529017
 H          7.8388456825        1.8982444190       -0.4092803976
 H          7.2478968955        0.6954878742        1.6621558724
 H          4.8941729624       -0.0818293775        2.0010448195
 H          3.5508586234       -1.6250759891       -0.7787652197
 H          2.6355770505       -3.4462357617       -1.9642074630
 H          0.5994895656       -4.7247731360       -2.5113592166
 H         -1.5280267947       -4.2206725029       -1.3943961319
 H         -1.9283051373       -2.6187424385        1.5871349212
 C         -3.2308533915       -2.8384481323       -0.0993333341
 C         -3.7355395606       -4.1949718114        0.2886381997
 C         -4.4731305962       -2.9670487944        0.7282307365
 H         -5.4239976842       -2.7413586465        0.2694414833
 H         -4.4077277395       -2.6714282817        1.7655766678
 H         -4.1853056508       -4.8148253829       -0.4721913407
 H         -3.1767790740       -4.7418441931        1.0330313470
 H         -3.3451357870       -2.5209949356       -1.1293696184
