  62
        -98.94435657
 C          2.2570996246        1.0751613581        0.2693350515
 C          2.4062614146       -0.0540050325       -0.5718814288
 C          3.3219136043       -1.0960399354       -0.0872273624
 C          3.9160444472       -0.9700813167        1.1123863728
 C          4.8481204298       -1.9624410166        1.7525314796
 C          6.3066886470       -1.8361708758        1.2912696747
 C          6.5841999405       -2.3235810159       -0.1313625413
 H          7.6685965502       -2.3821416601       -0.2437100413
 H          6.1895494704       -3.3329972654       -0.2516591878
 C          6.0226581016       -1.4142617376       -1.2332464663
 H          5.7886972292       -0.4337598070       -0.8123524002
 H          6.7840160874       -1.2598274479       -2.0010421281
 C          4.7785757982       -1.9607565340       -1.9336801198
 H          5.0325927398       -2.8771782613       -2.4710167044
 H          4.4452368664       -1.2217928791       -2.6667366783
 C          3.6035721121       -2.2574606937       -0.9926169899
 H          2.7111114397       -2.4319350883       -1.5990831761
 H          3.8062859885       -3.1546561793       -0.4079945215
 H          6.6128343838       -0.7917610542        1.3850380161
 H          6.9173589329       -2.4247666908        1.9796850300
 H          4.8091575027       -1.7747493975        2.8277439290
 H          4.4908550867       -2.9754043291        1.5643783573
 O          3.7115505490        0.1077419147        1.9143197127
 C          2.9028863780        1.1541536471        1.5082633164
 O          2.8370237660        2.0921612737        2.3275117991
 H         -0.2485904123        0.5623153144       -1.4272763725
 C         -0.7583664460        1.0313190702       -0.5989445868
 C         -0.0710472867        1.9355777456        0.1980445863
 C         -0.7292769373        2.4969976776        1.2862632888
 C         -2.0431096819        2.1629379928        1.5635233901
 C         -2.7250225610        1.2616521993        0.7654162650
 C         -2.0711881020        0.6848665602       -0.3151879132
 N         -2.7502885064       -0.2452644234       -1.1250198509
 S         -3.4652204727       -1.5540496679       -0.3505158424
 O         -2.7832614941       -1.8803411925        0.8815306187
 O         -3.5310427591       -2.6005598225       -1.3474471474
 C         -5.1174515664       -0.9860776701       -0.0033348933
 C         -5.5985316133       -1.0138935739        1.2909451559
 C         -6.8899118839       -0.5727970324        1.5355405598
 C         -7.6730117228       -0.1149608830        0.4870524004
 C         -7.1759347196       -0.0963711659       -0.8077655968
 C         -5.8864995817       -0.5370146777       -1.0592009847
 H         -5.4634777957       -0.5428436187       -2.0498081864
 H         -7.7880245066        0.2601508566       -1.6204612457
 H         -8.6767840954        0.2290882132        0.6803424444
 H         -7.2779537845       -0.5873347234        2.5414011480
 H         -4.9506333192       -1.3726406174        2.0749871628
 H         -2.1923278451       -0.5668280643       -1.9040948710
 H         -3.7465699087        0.9930115761        0.9798223735
 H         -2.5413175522        2.6072418713        2.4117289523
 H         -0.1942505526        3.1834469312        1.9266876416
 C          1.3758785608        2.2665921272       -0.0798966298
 H          1.6736801750        3.0651730347        0.6123810992
 C          1.5832581543        2.7610159303       -1.4978185305
 C          1.1572840480        4.1536684852       -1.8485005583
 C          2.6145301657        3.8149789392       -1.7605670918
 H          3.1891157720        3.7567791458       -2.6728769308
 H          3.1754774664        4.1873004395       -0.9154509584
 H          0.7284942942        4.3309390272       -2.8227405008
 H          0.7299253299        4.7574440839       -1.0623069795
 H          1.4617592502        1.9917531422       -2.2485076580
 O          1.8201249058       -0.2109554818       -1.6771244648
