  62
        -98.94843020
 C         -0.7802247594       -1.2353249603        0.0784111809
 C         -1.5233793995       -0.6714025113        1.1416057213
 C         -2.4005751205        0.4512181381        0.7851427419
 C         -2.4339770113        0.8808354585       -0.4898674379
 C         -3.3842975123        1.9161462179       -1.0172960873
 C         -4.6858535819        1.2665932270       -1.5110093471
 C         -5.3150646708        0.2939780562       -0.5136923472
 H         -6.2403753207       -0.0764456144       -0.9601932970
 H         -4.6535357201       -0.5659053133       -0.3861263877
 C         -5.6204871209        0.9038358055        0.8615033031
 H         -6.6209771805        0.5930996946        1.1697604933
 H         -5.6267547018        1.9921926655        0.7921580635
 C         -4.6595137902        0.4734294659        1.9710924827
 H         -5.0796191301        0.7900070653        2.9296565229
 H         -4.5860531093       -0.6169392640        1.9910445223
 C         -3.2400264107        1.0479042871        1.8794047524
 H         -3.2882279916        2.1342367371        1.7804327328
 H         -2.7250421702        0.8121649372        2.8157750021
 H         -4.4710769518        0.7192464875       -2.4314745573
 H         -5.3986483526        2.0594014965       -1.7449585866
 H         -3.6040983426        2.6376966175       -0.2329486770
 H         -2.9108420330        2.4280459686       -1.8552168173
 O         -1.6454310712        0.3653615895       -1.4658227083
 C         -0.7964969702       -0.7004673199       -1.2097003090
 O         -0.1283278902       -1.0733031491       -2.1911613893
 H          1.5379846702       -0.3859715688        1.1040266704
 C          2.1087357106       -1.0539461281        0.4743971100
 C          1.5099978814       -2.2065339384       -0.0200050202
 C          2.2675958318       -3.0667360776       -0.8041692607
 C          3.5861966915       -2.7666583864       -1.0983800910
 C          4.1739093807       -1.6107421261       -0.6203535208
 C          3.4269649002       -0.7496454470        0.1772803897
 N          4.0029565295        0.4203264333        0.6894926999
 S          3.0926427285        1.7354423325        1.1328879306
 O          4.0502434777        2.8211841032        1.1879012506
 O          2.3874837491        1.4710330915        2.3629244207
 C          1.9281755578        2.0735918619       -0.1765860089
 C          0.7694133274        2.7393916909        0.1684107317
 C         -0.1090217032        3.1255050305       -0.8297613879
 C          0.1762743166        2.8240149312       -2.1520422381
 C          1.3351127571        2.1409332722       -2.4820037687
 C          2.2281744077        1.7712997026       -1.4891151891
 H          3.1369267380        1.2451479034       -1.7317498896
 H          1.5462060669        1.8914833827       -3.5091881689
 H         -0.5099560739        3.1170968709       -2.9308879278
 H         -1.0105060636        3.6567052597       -0.5702051075
 H          0.5764651376        2.9367244004        1.2112967318
 H          4.9045696391        0.6734553842        0.3150016797
 H          5.2002035604       -1.3734696252       -0.8547820911
 H          4.1625204118       -3.4399518658       -1.7143373414
 H          1.8255356724       -3.9697970978       -1.1908147108
 C          0.0702452317       -2.4637895697        0.3432490402
 H          0.0187244222       -2.6267321801        1.4305509602
 C         -0.5294185976       -3.6652385900       -0.3590255800
 C         -0.3385622863       -5.0427524000        0.1996066595
 C         -1.6795122968       -4.3793171511        0.2830736301
 H         -2.4776254967       -4.7438123116       -0.3462586097
 H         -2.0135999668       -4.0156596717        1.2441005404
 H          0.2362490941       -5.1379343698        1.1083960093
 H         -0.2187484358       -5.8668703397       -0.4873347308
 H         -0.5550143280       -3.5464528997       -1.4366508499
 O         -1.4717040888       -1.0995944616        2.3273022211
