  62
        -98.94715747
 C         -1.6175026505       -1.5664183686       -0.2514877484
 C         -2.7791823928       -1.2263183041        0.4887098949
 C         -3.5549146234       -0.0889643945       -0.0154677418
 C         -3.1556753902        0.5489278408       -1.1304898741
 C         -3.8537061980        1.7114341978       -1.7833031772
 C         -3.4977152297        3.0789936571       -1.1840072873
 C         -4.0683499951        3.3498938415        0.2084039881
 H         -5.1446856651        3.1752927701        0.1985208437
 H         -3.9145158536        4.4106298353        0.4165889176
 C         -3.4218075322        2.5255886234        1.3308589896
 H         -3.1926900461        3.1773926477        2.1767199680
 H         -2.4742713419        2.1082263061        0.9820999733
 C         -4.2958813544        1.3887403728        1.8610040817
 H         -5.1912832079        1.8015772613        2.3310216062
 H         -3.7312983176        0.8507559709        2.6267244971
 C         -4.7283129245        0.3754929374        0.7925827026
 H         -5.4900513985        0.8107356244        0.1460957617
 H         -5.1531015834       -0.4960121490        1.2965948494
 H         -3.8823192956        3.8416077730       -1.8652541985
 H         -2.4107878467        3.1769132508       -1.1565441087
 H         -4.9327295867        1.5622215768       -1.7341583094
 H         -3.5515380639        1.7070636772       -2.8330413524
 O         -2.0481191468        0.1787150683       -1.8249693323
 C         -1.2368282971       -0.8630599543       -1.3939687426
 O         -0.2395836319       -1.0510613581       -2.1171175171
 O         -3.1488847545       -1.8465931072        1.5200398565
 C         -0.7418681281       -2.6886222542        0.2843102326
 C          0.5047953443       -2.0423472969        0.8344494133
 C          0.4919104022       -1.5139406508        2.1225577755
 C          1.5809292645       -0.8173338919        2.6125340261
 C          2.6964069351       -0.6104894438        1.8193116806
 C          2.7112516278       -1.1229812240        0.5291553376
 C          1.6332234667       -1.8547989305        0.0512479336
 H          1.6570962027       -2.2363311196       -0.9569274761
 N          3.8134857274       -0.8578890740       -0.3060411389
 S          4.2959943818        0.7448877485       -0.3812835255
 O          4.8395014018        0.9252163984       -1.7095122344
 O          5.2072539974        1.0174203728        0.7036568994
 C          2.8149467800        1.7217292393       -0.1688247120
 C          1.7427146265        1.4994005169       -1.0093372562
 C          0.5927625921        2.2532826064       -0.8401927784
 C          0.5317295110        3.2120027692        0.1587929204
 C          1.6189468487        3.4262710417        0.9917986902
 C          2.7712510582        2.6748614592        0.8289641119
 H          3.6368640663        2.8041664263        1.4582069444
 H          1.5691742144        4.1727181696        1.7680085697
 H         -0.3676313179        3.7939977888        0.2901923264
 H         -0.2495753904        2.0692371964       -1.4892330909
 H          1.7907524401        0.7410852303       -1.7750017842
 H          3.7043297874       -1.2355919569       -1.2366586084
 H          3.5485659221       -0.0532991532        2.1737730431
 H          1.5584405597       -0.4199831576        3.6157053693
 H         -0.3932129021       -1.6425322786        2.7294167174
 H         -1.3041213122       -3.1226918712        1.1214473080
 C         -0.4786317672       -3.7715367633       -0.7395161168
 C          0.0950361280       -5.0796412682       -0.2856379158
 C         -1.3313258988       -5.0033844672       -0.7381238633
 H         -1.5968904250       -5.4463131632       -1.6863789453
 H         -2.1088894164       -5.0733107778        0.0082871440
 H          0.8110988588       -5.5784000853       -0.9207986175
 H          0.2865937391       -5.1986462539        0.7700726023
 H         -0.1689700399       -3.3909524330       -1.7048654019
