  62
        -98.93449115
 C         -2.3564696018       -1.3275389646        0.2988475823
 C         -2.5926420573       -0.3014349455       -0.6441062756
 C         -3.6492645690        0.6766095455       -0.3111382299
 C         -4.3352135785        0.5428671015        0.8373874772
 C         -5.4351161393        1.4110399734        1.3942961796
 C         -6.5205498560        1.8715649988        0.4092425857
 C         -6.4527518945        3.3647081228        0.0835938685
 H         -7.4412414817        3.6966215114       -0.2416683764
 H         -6.2115775655        3.9090941207        0.9989723168
 C         -5.4551923890        3.7472012921       -1.0084533121
 H         -5.4017447163        4.8380093729       -1.0403692835
 H         -5.8334393195        3.4126722090       -1.9769433811
 C         -4.0412553937        3.1921398543       -0.8253309469
 H         -3.3571585495        3.8280391539       -1.3915289870
 H         -3.7394291048        3.2528354048        0.2196477205
 C         -3.8747053778        1.7535276731       -1.3378963350
 H         -4.7327181887        1.4761284235       -1.9569380958
 H         -3.0014640967        1.6976889085       -1.9952237614
 H         -7.4907310602        1.6714750344        0.8668988240
 H         -6.4678794175        1.2810951517       -0.5040598989
 H         -5.8864912158        0.8160347183        2.1914736051
 H         -4.9792849231        2.2798285822        1.8757997583
 O         -4.0761306487       -0.4643511623        1.7187418243
 C         -3.0986578522       -1.4081746974        1.4816812832
 O         -2.9887287437       -2.2657249879        2.3801902473
 H          0.1117227666       -0.4710236432       -1.1201185618
 C          0.6649833186       -0.9122759288       -0.3043119856
 C          0.0762701348       -1.9189319130        0.4473690087
 C          0.7979381647       -2.4705123385        1.4995267229
 C          2.0741651677       -2.0210750976        1.7898349805
 C          2.6541557111       -1.0113773815        1.0428101272
 C          1.9412153929       -0.4529087927       -0.0099677128
 N          2.5040795239        0.5931514250       -0.7596250384
 S          4.0746061750        0.4338832202       -1.3243796615
 O          4.1572316732        1.3095930260       -2.4727403087
 O          4.4223648093       -0.9506833699       -1.5458975279
 C          5.0695446969        1.1100656622       -0.0110529008
 C          6.0952249732        0.3622276551        0.5330619341
 C          6.8630548809        0.9146872096        1.5465538785
 C          6.5938374702        2.1987979831        1.9944385154
 C          5.5618224382        2.9380222173        1.4354703661
 C          4.7913034759        2.3918415775        0.4215931130
 H          3.9833302963        2.9338697128       -0.0411234675
 H          5.3555212967        3.9364355640        1.7862552710
 H          7.1918076213        2.6265142472        2.7836193443
 H          7.6662773748        0.3421182351        1.9818095958
 H          6.2648898178       -0.6338873269        0.1562551072
 H          1.8903194072        0.9448479113       -1.4804321882
 H          3.6470606309       -0.6565116445        1.2658978961
 H          2.6228444881       -2.4591541740        2.6095989552
 H          0.3466041891       -3.2493110286        2.0970611460
 C         -1.3109251281       -2.4178410550        0.1171677471
 H         -1.5684056636       -3.1928155928        0.8513982705
 C         -1.3415032121       -3.0439835569       -1.2643804447
 C         -0.7741258879       -4.4174106765       -1.4515388896
 C         -2.2555114677       -4.2013232945       -1.5251130940
 H         -2.7420550761       -4.2669662341       -2.4867274601
 H         -2.8633758348       -4.5524235124       -0.7036931560
 H         -0.3778739780       -4.9179698814       -0.5810071355
 H         -0.2381877385       -4.6328031845       -2.3633005161
 H         -1.2053273614       -2.3296711251       -2.0655363137
 O         -1.9608601926       -0.1753709655       -1.7292647055
