  62
        -98.94391043
 C          1.7799345386        0.4716142734       -0.4007308910
 C          3.0175898182        1.0625059590       -0.7496071184
 C          4.1407643819        0.7873898202        0.1560602046
 C          3.9344444982        0.0258354030        1.2463170646
 C          4.9987614596       -0.3732023712        2.2262150333
 C          5.6485762306       -1.7062651440        1.8297057790
 C          6.0879580114       -1.7683929239        0.3668377834
 H          6.5598965411       -2.7407404810        0.2100071298
 H          5.2034121403       -1.7333493658       -0.2731614601
 C          7.0591712919       -0.6557900318       -0.0518078023
 H          7.5116721139       -0.2061085387        0.8328234779
 H          7.8667601413       -1.0981068449       -0.6389716104
 C          6.4321819180        0.4420325737       -0.9132509460
 H          5.8977260444       -0.0110552396       -1.7520794098
 H          7.2396018745        1.0498394608       -1.3304194385
 C          5.4724215180        1.3933051773       -0.1874079406
 H          5.9567612472        1.7933532835        0.7059201231
 H          5.2569757151        2.2265498947       -0.8629881133
 H          6.5101824745       -1.8761595961        2.4779886956
 H          4.9280269019       -2.5083106864        2.0052635998
 H          5.7527756463        0.4101074543        2.2751773207
 H          4.5376135523       -0.4821634212        3.2093871094
 O          2.7277596191       -0.5105869670        1.5582657608
 C          1.6218796696       -0.3115417283        0.7431773969
 O          0.5842458700       -0.8692017283        1.1424250426
 H         -2.1062906264        0.4175654070       -1.7111446341
 C         -1.8790473729        1.1045647380       -0.9101927039
 C         -0.5572682113        1.3610071577       -0.5725916411
 C         -0.3045285702        2.2675625178        0.4524155769
 C         -1.3403331840        2.8691819005        1.1424571876
 C         -2.6567242621        2.5945696869        0.8155831674
 C         -2.9212907615        1.7143830099       -0.2229611419
 N         -4.2684078230        1.4354410693       -0.5526043686
 S         -5.0774728712        0.4296889734        0.5186909741
 O         -6.4209048401        0.2987135710        0.0024411090
 O         -4.9472515758        0.9696391194        1.8466168418
 C         -4.2203480690       -1.1274369947        0.3751685366
 C         -2.9792165872       -1.2578704522        0.9653027858
 C         -2.2562282493       -2.4220558851        0.7570076251
 C         -2.7892291437       -3.4330495146       -0.0278407715
 C         -4.0427976702       -3.2917273150       -0.6054053171
 C         -4.7627316068       -2.1240370516       -0.4131580607
 H         -5.7353593367       -1.9663903237       -0.8509475767
 H         -4.4541358500       -4.0829948297       -1.2115876012
 H         -2.2211056073       -4.3357161310       -0.1909741795
 H         -1.2715515002       -2.5048332591        1.1894507870
 H         -2.5819439756       -0.4601229996        1.5717546050
 H         -4.3800748920        1.0669208183       -1.4878162588
 H         -3.4774786330        3.0356841091        1.3567485801
 H         -1.1205994510        3.5587705238        1.9436973599
 H          0.7209644457        2.4895146188        0.7144429133
 C          0.5842800673        0.6981633330       -1.3046766365
 H          0.9374559559        1.3917077052       -2.0835081051
 C          0.1758343637       -0.6066342426       -1.9619291679
 C         -0.3376129951       -0.6291759773       -3.3701467636
 C          1.0296145779       -1.1592115355       -3.0622109423
 H          1.1946877634       -2.2252308462       -3.1032501781
 H          1.8852121151       -0.5730607545       -3.3651981316
 H         -0.4049453080        0.3114550366       -3.8961821204
 H         -1.1130857792       -1.3362932255       -3.6247440060
 H         -0.2456074701       -1.3109987089       -1.2531761491
 O          3.1730729172        1.7894427916       -1.7684480423
