  62
        -98.93517156
 C         -1.9397013993       -1.2035940236        0.0689941836
 C         -2.7513010569       -0.6547717640        1.0906388687
 C         -3.9415933657        0.1111559401        0.6723763374
 C         -4.1672803328        0.2821901893       -0.6432186903
 C         -5.2798194561        1.0518191144       -1.3034802819
 C         -5.0632259079        2.5730804824       -1.2433571404
 C         -4.5695517834        3.1012126715        0.1013787637
 H         -3.6360902711        2.5988659322        0.3627847050
 H         -4.3405273685        4.1630751239       -0.0229197308
 C         -5.5591474095        2.9692263150        1.2566961332
 H         -6.4702775234        3.5193951063        1.0110338808
 H         -5.1066786467        3.4495665707        2.1281939256
 C         -5.9457162427        1.5415103379        1.6473467195
 H         -6.6565611025        1.1222852576        0.9404131487
 H         -6.4619534330        1.5970104619        2.6102857846
 C         -4.7686729021        0.5903991218        1.8410933166
 H         -4.0595842630        1.0378445853        2.5469880106
 H         -5.1339821488       -0.3171143555        2.3374577159
 H         -4.3170807709        2.8370030200       -1.9970174453
 H         -5.9995334093        3.0664829982       -1.5092146921
 H         -5.2949516444        0.7450235796       -2.3516295191
 H         -6.2343337861        0.7771678015       -0.8642752189
 O         -3.3282081208       -0.2172322284       -1.5936710421
 C         -2.2022074216       -0.9613884304       -1.2799211398
 O         -1.5461974616       -1.3276648977       -2.2717276501
 O         -2.4891922093       -0.7875242287        2.3171411202
 C         -0.7165070841       -1.9980848039        0.4902600564
 C          0.4976457629       -1.5123724535       -0.2607307186
 C          1.2776884686       -2.3204059731       -1.0760327948
 C          2.3682151666       -1.7935204144       -1.7469100641
 C          2.7080412448       -0.4603826871       -1.6160417163
 C          1.9414291129        0.3546657840       -0.7918860546
 C          0.8548165045       -0.1766230554       -0.1153096323
 H          0.2532904560        0.4617199759        0.5207667891
 N          2.2812248684        1.7091941614       -0.6440109871
 S          3.8931170642        2.1151232099       -0.4648756589
 O          3.8867141856        3.3644746276        0.2637870725
 O          4.5364680883        2.1432310303       -1.7546967323
 C          4.5968234851        0.8142564558        0.5330943517
 C          4.0777780103        0.6128731348        1.7968395361
 C          4.5888903218       -0.4119433157        2.5760632756
 C          5.6056933882       -1.2141929731        2.0806289344
 C          6.1199359841       -0.9957690797        0.8122359278
 C          5.6109007363        0.0268670612        0.0275938852
 H          5.9798900261        0.2300757082       -0.9644820275
 H          6.9119377763       -1.6196081042        0.4306044042
 H          5.9992252726       -2.0131393551        2.6889061387
 H          4.1902864635       -0.5825813983        3.5632753431
 H          3.2914960228        1.2580798899        2.1551165072
 H          1.6954618770        2.2166065811        0.0016281613
 H          3.5392736970       -0.0322952699       -2.1522911095
 H          2.9574443584       -2.4297335753       -2.3894142310
 H          1.0159825953       -3.3565980368       -1.2107896529
 H         -0.5810005088       -1.7382337013        1.5538045790
 C         -0.8989540484       -3.5072323957        0.4386068685
 C         -2.2545952646       -4.1264105338        0.5968881704
 C         -1.5456019153       -4.2024923738       -0.7203951872
 H         -1.1471977551       -5.1573172214       -1.0313147655
 H         -1.9011211570       -3.5922965227       -1.5355002342
 H         -2.3428935327       -5.0249904398        1.1889213962
 H         -3.1021929534       -3.4618726644        0.6832162903
 H         -0.0771568886       -4.0285785265        0.9197426002
