  62
        -98.93910946
 C         -2.4209958355       -1.1981172708       -0.0685797120
 C         -3.5309172838       -0.9476351071        0.7738800842
 C         -4.5052299762        0.0512668747        0.3030666988
 C         -4.2848174847        0.6735787409       -0.8679886761
 C         -5.1147130306        1.7574222455       -1.4987247755
 C         -4.5820082128        3.1470451548       -1.1097723055
 C         -5.1459706448        3.7110736331        0.1938022075
 H         -4.5962126464        4.6289803225        0.4143654154
 H         -6.1925212819        3.9839938443        0.0428962933
 C         -5.0528353006        2.7790602791        1.4047467362
 H         -4.0740917436        2.2957585932        1.4216660069
 H         -5.1252048497        3.3924586485        2.3049526246
 C         -6.1623792598        1.7174898435        1.4364149361
 H         -6.9284835705        1.9814733144        0.7076697917
 H         -6.6476952423        1.7315940678        2.4144631801
 C         -5.6955891786        0.2743439692        1.1958649113
 H         -5.4128798615       -0.1798750706        2.1506255317
 H         -6.5352866156       -0.3119822922        0.8081233226
 H         -3.4925376237        3.0821956685       -1.0431375886
 H         -4.8174827771        3.8495779170       -1.9119081917
 H         -5.0142714362        1.6367604730       -2.5793835262
 H         -6.1610104583        1.6479353818       -1.2293950615
 O         -3.1943342778        0.4155343909       -1.6411172363
 C         -2.2399984027       -0.5173667192       -1.2720013914
 O         -1.3105808140       -0.6451326440       -2.0929554737
 H          0.8396225455       -1.9407471501       -1.1934894820
 C          0.9348127860       -1.4422094746       -0.2420681432
 C         -0.1001842145       -1.5050443068        0.6767302608
 C          0.0373417371       -0.8232519561        1.8832080293
 C          1.1846818908       -0.1051988170        2.1609308102
 C          2.2161322546       -0.0431665623        1.2392586500
 C          2.0800581050       -0.7025651966        0.0258823527
 N          3.1152022404       -0.6437677283       -0.9214340652
 S          3.8688364686        0.8256997957       -1.2131899167
 O          2.9883809636        1.9458689620       -0.9737395322
 O          4.4153824195        0.7100224373       -2.5478726716
 C          5.2126409531        0.8411245855       -0.0426101404
 C          5.4057650395        1.9398230760        0.7715820291
 C          6.4648952563        1.9341351903        1.6661909073
 C          7.3085900919        0.8359432388        1.7297516627
 C          7.1030305948       -0.2586243206        0.9030689998
 C          6.0469930863       -0.2586332439        0.0060095809
 H          5.8545069917       -1.0877659678       -0.6540116233
 H          7.7608125599       -1.1112000790        0.9554865928
 H          8.1307789225        0.8330778332        2.4278081644
 H          6.6259331655        2.7846659680        2.3089976552
 H          4.7205338930        2.7689425325        0.6918524749
 H          2.8920853463       -1.1103415068       -1.7889192939
 H          3.1085621021        0.5251310322        1.4440503124
 H          1.2790570409        0.4143970057        3.1023794846
 H         -0.7757051380       -0.8557252025        2.5951948657
 C         -1.3936871872       -2.2230960082        0.3835902414
 H         -1.7830328334       -2.6248975297        1.3286915499
 C         -1.2578350356       -3.3589281181       -0.6083238423
 C         -0.5818210968       -4.6272312133       -0.1835486132
 C         -2.0634406059       -4.6057026867       -0.4059790904
 H         -2.4632784768       -5.1058917295       -1.2753603366
 H         -2.7119987589       -4.6460185858        0.4567373194
 H         -0.2225235966       -4.6812229915        0.8328268782
 H          0.0378624959       -5.1466076899       -0.8984272633
 H         -1.1176265065       -3.0237568595       -1.6291125892
 O         -3.7004992160       -1.5343340107        1.8761997495
