  62
        -98.93459369
 C         -2.5554670636       -0.4515612593        0.3895857162
 C         -2.9439816166        0.8972147565        0.1811155120
 C         -4.2598834978        1.1150296467       -0.4318427853
 C         -5.0019219967        0.0492021212       -0.7824413184
 C         -6.3798264077        0.1174517150       -1.3733566065
 C         -7.4563200473        0.0811778201       -0.2797022989
 C         -7.2116813207        1.0706345310        0.8595489200
 H         -8.0487895376        0.9795988224        1.5550870106
 H         -6.3102769304        0.7744113709        1.4009553644
 C         -7.0751121766        2.5325651687        0.4116889755
 H         -7.4864298001        2.6527363681       -0.5911545901
 H         -7.6661373027        3.1605372948        1.0817088146
 C         -5.6444466844        3.0739448604        0.4406081432
 H         -5.1954380792        2.8701834963        1.4159690274
 H         -5.6897977872        4.1597820711        0.3218970575
 C         -4.7034831069        2.5351186421       -0.6446036056
 H         -5.1693663495        2.6497078061       -1.6255738729
 H         -3.7917015462        3.1391801864       -0.6246223286
 H         -8.4241067042        0.2861500362       -0.7409817893
 H         -7.4873381434       -0.9261258653        0.1420355136
 H         -6.4726379685        1.0295916537       -1.9596885826
 H         -6.5141105056       -0.7424106217       -2.0318538491
 O         -4.5903887701       -1.2280165939       -0.5921135237
 C         -3.3658597769       -1.5198045756        0.0010868587
 O         -3.1472420845       -2.7393986710        0.1094234341
 O         -2.2195308753        1.8771209461        0.5050787296
 C         -1.2054111259       -0.6699318155        1.0478845762
 C         -0.1042548443       -0.8118976957        0.0268631917
 C         -0.2377833199       -1.6535488428       -1.0722669331
 C          0.7938743491       -1.7835797832       -1.9846914519
 C          1.9755080312       -1.0829392148       -1.8210173742
 C          2.1215461798       -0.2423400583       -0.7256692940
 C          1.0831366739       -0.1126455231        0.1890246499
 H          1.1938188449        0.5555813326        1.0324421724
 N          3.3162637245        0.4790948071       -0.5598171000
 S          4.7595778449       -0.3538567305       -0.8505963292
 O          5.0303940634       -0.3149418830       -2.2657529543
 O          4.6951692450       -1.6691129998       -0.2549581605
 C          5.9315571867        0.6678352566        0.0191852444
 C          6.4236253792        1.7987044217       -0.6045709866
 C          7.3193198268        2.6039436427        0.0807800481
 C          7.7049460711        2.2676606369        1.3700870044
 C          7.2029982106        1.1290074184        1.9822531504
 C          6.3060570667        0.3195088318        1.3031487576
 H          5.8982182895       -0.5801464887        1.7356497979
 H          7.5070103859        0.8685446339        2.9833141779
 H          8.4036727392        2.8952583775        1.9003517815
 H          7.7142661104        3.4885795522       -0.3920724148
 H          6.1034137158        2.0151320809       -1.6103471975
 H          3.3468461288        0.9770627560        0.3194092711
 H          2.7881375069       -1.1822486171       -2.5226502344
 H          0.6778575291       -2.4417459212       -2.8330630111
 H         -1.1522949761       -2.2131112391       -1.1988565317
 H         -1.0148935924        0.2622091123        1.6037795052
 C         -1.2072979105       -1.8055751727        2.0624412475
 C         -0.5411162444       -3.1250368939        1.8324135285
 C          0.0455496952       -2.1547213426        2.8104841302
 H         -0.0250919572       -2.3726608657        3.8652796571
 H          0.9564773320       -1.6523602315        2.5210139706
 H         -1.0393265932       -4.0077356393        2.2026533503
 H         -0.0258493438       -3.2808961875        0.8975680544
 H         -2.1325422032       -1.8329617731        2.6294328681
