  62
        -98.94117958
 C         -2.1320993731       -0.7596474666       -0.3787702467
 C         -3.1904908502       -0.7268110203        0.5674289689
 C         -3.7840172235        0.5870794934        0.8416822781
 C         -3.2808347274        1.6733219456        0.2281238212
 C         -3.8098631599        3.0692574250        0.3809522851
 C         -4.8751244986        3.3800957380       -0.6798526500
 C         -5.9578453165        2.3076215745       -0.7996653454
 H         -6.6705491143        2.6481829733       -1.5537973602
 H         -5.5065803627        1.3867475070       -1.1759387721
 C         -6.7021121965        2.0079661518        0.5090088235
 H         -6.5508921953        2.8238461720        1.2166715626
 H         -7.7723728896        1.9551513712        0.2988529173
 C         -6.3129872319        0.6849316244        1.1713751414
 H         -6.3720751063       -0.1231731854        0.4380217140
 H         -7.0436246891        0.4694562858        1.9554718394
 C         -4.9233464377        0.6459010649        1.8200483215
 H         -4.8072206064        1.4969479143        2.4944292767
 H         -4.8572342762       -0.2718174555        2.4117265902
 H         -5.3350804665        4.3392360489       -0.4353681169
 H         -4.3801323181        3.4771235342       -1.6488341935
 H         -4.2297589233        3.1844553879        1.3784050268
 H         -2.9777487735        3.7659354383        0.2651619450
 O         -2.2492542869        1.6104116611       -0.6490800328
 C         -1.6520589308        0.4031199119       -0.9816679301
 O         -0.7323441325        0.5225898770       -1.8161902191
 O         -3.6223591379       -1.7560797689        1.1519915009
 C         -1.5109307923       -2.1185173855       -0.6656419952
 C         -0.2080656434       -2.2370599847        0.0882928407
 C         -0.1378528645       -2.9742407630        1.2651269784
 C          1.0377390437       -3.0308430044        1.9930992447
 C          2.1650327734       -2.3503749967        1.5679300475
 C          2.1006889396       -1.6041436410        0.3987648187
 C          0.9269665817       -1.5628976995       -0.3389276413
 H          0.8792329674       -0.9596054453       -1.2329075992
 N          3.2384098350       -0.8842725958       -0.0408392319
 S          3.7510807235        0.3263680307        1.0253420423
 O          4.3182257292       -0.3048872337        2.1900098740
 O          2.6773345888        1.2654699318        1.2753396316
 C          5.0386591222        1.0966869910        0.0646358933
 C          6.3315731098        0.6215138542        0.1697944581
 C          7.3230674171        1.2023506862       -0.6048871937
 C          7.0063429753        2.2405057152       -1.4681310867
 C          5.7035371214        2.7065846771       -1.5628045365
 C          4.7070999951        2.1296226660       -0.7912994961
 H          3.6827730910        2.4669124484       -0.8269534537
 H          5.4591695276        3.5147364911       -2.2334301770
 H          7.7790798784        2.6919156511       -2.0701043439
 H          8.3373758987        0.8444752310       -0.5331428615
 H          6.5302360687       -0.1820354688        0.8592731772
 H          3.0464867411       -0.4450426037       -0.9337674974
 H          3.0790609338       -2.3649604576        2.1384999004
 H          1.0760673777       -3.6065903582        2.9056470948
 H         -1.0220032125       -3.4854533301        1.6183958033
 H         -2.2111261582       -2.8485779911       -0.2382145351
 C         -1.3559245023       -2.4096656035       -2.1443436219
 C         -1.1514885578       -3.8269929438       -2.5856492233
 C         -2.4507048273       -3.1348474099       -2.8655753626
 H         -2.6757823569       -2.8470295646       -3.8815637284
 H         -3.3187200694       -3.4272566316       -2.2928159061
 H         -0.4818957902       -4.0179941239       -3.4099610600
 H         -1.1376618342       -4.5892068295       -1.8213801150
 H         -0.8382674629       -1.6313963358       -2.6893455343
