  62
        -98.93710209
 C          1.8486214500        1.4541003846        0.3004323440
 C          2.5374484395        0.8107451369       -0.7555136280
 C          3.7081809296        0.0119496234       -0.3631623699
 C          4.0604243013       -0.0659980706        0.9326514700
 C          5.2504925052       -0.7933048224        1.5006012870
 C          5.2405624581       -2.3279389540        1.3605194405
 C          5.9767792717       -2.8549092226        0.1225933153
 H          6.7158041803       -2.1153018370       -0.1877609556
 H          6.5307405007       -3.7539482825        0.4003120845
 C          5.0931742977       -3.2269659338       -1.0720919791
 H          5.7409828611       -3.3416651093       -1.9438138641
 H          4.6246988010       -4.1954803797       -0.8819993196
 C          3.9772348296       -2.2385846409       -1.4123738532
 H          3.1617990389       -2.3419379719       -0.6918605974
 H          3.5619165707       -2.5136058973       -2.3840343456
 C          4.4124534378       -0.7604068408       -1.4400761311
 H          5.4926682466       -0.6747924650       -1.3323256112
 H          4.1221731498       -0.3061399796       -2.3895315265
 H          5.7350099073       -2.7293563792        2.2465767895
 H          4.2121780634       -2.6886969237        1.3744229231
 H          6.1574513576       -0.3939810630        1.0412934546
 H          5.2710959894       -0.5330595227        2.5609091095
 O          3.3640046313        0.5648364262        1.9184001004
 C          2.2376796378        1.3190371326        1.6321417084
 O          1.6753970307        1.8062739333        2.6347344327
 H         -0.1535489045       -0.1399980793        0.7454800304
 C         -0.7083165608        0.1885181498       -0.1253952996
 C         -0.4361150279        1.4396353666       -0.6660529602
 C         -1.1685654974        1.8551676329       -1.7698445689
 C         -2.1213787275        1.0231933597       -2.3336020362
 C         -2.3707859793       -0.2306457091       -1.8082883849
 C         -1.6573596154       -0.6481140226       -0.6912214318
 N         -1.9139281637       -1.9138317473       -0.1367148309
 S         -3.5119934615       -2.3681641047        0.0660694122
 O         -3.5032423745       -3.2978054797        1.1739208968
 O         -4.0325808001       -2.8783115546       -1.1777089673
 C         -4.3731323044       -0.8700624274        0.5104217092
 C         -3.9788244308       -0.2097419099        1.6573519459
 C         -4.6131510908        0.9724620831        2.0019941234
 C         -5.6264013367        1.4717138156        1.1976393868
 C         -6.0143287363        0.7943583344        0.0523111404
 C         -5.3814882370       -0.3875215955       -0.2985420782
 H         -5.6489878443       -0.9448355414       -1.1814031574
 H         -6.8037920541        1.1841558287       -0.5696676421
 H         -6.1159031073        2.3939971635        1.4678152906
 H         -4.3113270214        1.5000291036        2.8927266002
 H         -3.1905706165       -0.6253653274        2.2650051884
 H         -1.3676178987       -2.1200707227        0.6861148683
 H         -3.0950239807       -0.8971195471       -2.2477642071
 H         -2.6742235271        1.3547536871       -3.1990171420
 H         -0.9868030002        2.8273363268       -2.1969527924
 C          0.6178290905        2.2905648507        0.0016455832
 H          0.2253587407        2.6124503833        0.9775572059
 C          1.0007969854        3.5182925534       -0.7982375770
 C          0.2098845091        4.7840694486       -0.6662003875
 C          1.5849680139        4.6948901042       -0.0777607334
 H          2.3874633585        5.2420742909       -0.5492027175
 H          1.6811520641        4.6202673965        0.9959432140
 H          0.0694326468        5.3983021565       -1.5428009185
 H         -0.6304865277        4.7808150153        0.0111666718
 H          1.4160466232        3.2689624378       -1.7677573879
 O          2.1988020250        0.8997326376       -1.9636382642
