  62
        -98.93281531
 C         -2.2011387793       -1.1466515040        0.3580730597
 C         -2.3278704772       -0.0665942471       -0.5496919245
 C         -3.3032292734        0.9749525785       -0.1797716434
 C         -3.9549460467        0.8843574429        0.9927796825
 C         -5.0350891840        1.8143500808        1.4674040444
 C         -6.3608337557        1.4893726893        0.7495880511
 C         -6.8662000478        2.5975615836       -0.1745559137
 H         -7.6720017572        2.1760780684       -0.7792652793
 H         -7.2942857180        3.3979304037        0.4326806106
 C         -5.8201841499        3.2223021412       -1.1029709359
 H         -6.3663373030        3.7848909824       -1.8630837079
 H         -5.2237045604        3.9480627297       -0.5481520436
 C         -4.8718044168        2.2407189971       -1.8036549882
 H         -4.7089429778        2.5955692307       -2.8232731085
 H         -5.3284703503        1.2536881458       -1.8805438787
 C         -3.4840890174        2.1115069147       -1.1476788115
 H         -2.7412485695        1.9315944121       -1.9305926762
 H         -3.2223029124        3.0535253054       -0.6579876066
 H         -7.1344653390        1.2828570524        1.4907304089
 H         -6.2233162140        0.5703009570        0.1759224218
 H         -4.7414863863        2.8451766047        1.2818246061
 H         -5.1395361975        1.6690668014        2.5429240594
 O         -3.7498747590       -0.1311815886        1.8729349036
 C         -2.8728530553       -1.1631668805        1.5821157751
 O         -2.7696234295       -2.0165543371        2.4867908210
 O         -1.6691136894        0.0348781439       -1.6156593615
 C         -1.2552092160       -2.3043360806        0.0900430985
 C          0.0846331059       -1.7868613571       -0.3751588526
 C          0.7001441659       -2.1804613125       -1.5552788403
 C          1.9431932532       -1.6769620100       -1.8982048054
 C          2.5963973493       -0.7747603176       -1.0797795124
 C          1.9903405840       -0.3742108680        0.1040881097
 C          0.7510919356       -0.8880392028        0.4499210876
 H          0.2797754865       -0.5772704219        1.3758511057
 N          2.6428031302        0.5563702382        0.9359477629
 S          4.1967402984        0.1748529466        1.4488989910
 O          4.3847485742       -1.2547746451        1.5452112048
 O          4.3899128585        0.9304336145        2.6678936060
 C          5.2488849243        0.8442574761        0.1785971514
 C          5.1227359660        2.1836614525       -0.1340942283
 C          5.9437714115        2.7219119043       -1.1120359499
 C          6.8738887870        1.9175277877       -1.7538634159
 C          6.9899135403        0.5753684266       -1.4261846942
 C          6.1704363776        0.0300219503       -0.4500385495
 H          6.2191654782       -1.0091482741       -0.1666256962
 H          7.7130120835       -0.0482206774       -1.9268136506
 H          7.5115828324        2.3394083100       -2.5145531755
 H          5.8553155429        3.7648211398       -1.3706910949
 H          4.3888708158        2.7737367072        0.3892402887
 H          2.0820814638        0.8548966828        1.7211231604
 H          3.5605514440       -0.3749575757       -1.3485929347
 H          2.4071199603       -1.9875974284       -2.8218965329
 H          0.1990305372       -2.8661694424       -2.2181902073
 H         -1.0997984097       -2.7754091192        1.0756756484
 C         -1.8350038916       -3.3823533278       -0.8142001352
 C         -3.3153271362       -3.6012909530       -0.9034174503
 C         -2.5658733133       -3.0589445557       -2.0812521564
 H         -2.4204544711       -3.7048228187       -2.9348209778
 H         -2.6851825888       -2.0181453681       -2.3357788028
 H         -3.6809899909       -4.6163931873       -0.9448547290
 H         -3.9549984635       -2.9308101250       -0.3474264223
 H         -1.2199647560       -4.2770773270       -0.8197007470
