  62
        -98.93375555
 C         -2.4562141747       -1.1120937123        0.4950996793
 C         -2.3987884486        0.1760948301       -0.0877178683
 C         -3.5745437160        1.0458207821        0.1229751667
 C         -4.6131034739        0.5999071852        0.8521477717
 C         -5.9113230863        1.2671591111        1.2563892752
 C         -6.3770802753        2.5506282318        0.5738347062
 C         -6.7635303469        2.3903748029       -0.8961854654
 H         -7.6820954155        1.8006374179       -0.9516264736
 H         -6.9798584733        3.3809638832       -1.3021252453
 C         -5.7242526056        1.7070814317       -1.7814976690
 H         -5.5742015440        0.6792765924       -1.4444617437
 H         -6.1307387588        1.6559301574       -2.7953141737
 C         -4.3690095318        2.4073979812       -1.8591762898
 H         -4.5095171274        3.4472927833       -2.1602734935
 H         -3.7861107884        1.9100097492       -2.6392673760
 C         -3.5333667957        2.3786347185       -0.5676114963
 H         -2.4872846162        2.5507372668       -0.8375466454
 H         -3.8295239399        3.1728658443        0.1132071876
 H         -5.6304901666        3.3308689743        0.6888381918
 H         -7.2677408852        2.8834022240        1.1138588148
 H         -5.8230975256        1.4596262412        2.3314117210
 H         -6.6857880579        0.5014881851        1.1447294316
 O         -4.6043855621       -0.6387276090        1.4284791595
 C         -3.5443232566       -1.5121239175        1.2730112657
 O         -3.6852702008       -2.5971175221        1.8720100139
 O         -1.4217120836        0.6019872111       -0.7548678762
 C         -1.3185145120       -2.1103458447        0.3627204771
 C          0.0006188293       -1.4306549844        0.6346518087
 C          0.2612114851       -0.9724641222        1.9231999234
 C          1.4528424212       -0.3404835463        2.2214692143
 C          2.4110831826       -0.1493793576        1.2412891501
 C          2.1621220925       -0.6027645235       -0.0462629466
 C          0.9662970462       -1.2459722526       -0.3411119547
 H          0.7782151556       -1.5738057127       -1.3517835029
 N          3.1196107190       -0.3924284575       -1.0507652096
 S          4.7258685073       -0.7510392396       -0.7453164976
 O          5.3119213561       -0.9969808326       -2.0451657260
 O          4.8562877496       -1.8115985509        0.2271169261
 C          5.3905139749        0.7649542331       -0.0890812069
 C          5.2377960765        1.9187689769       -0.8325576118
 C          5.7581035252        3.1051788392       -0.3410071060
 C          6.4206256136        3.1176110735        0.8774899743
 C          6.5685616800        1.9501656625        1.6104377666
 C          6.0497385921        0.7600564787        1.1244206235
 H          6.1364550490       -0.1707165610        1.6622730754
 H          7.0842106293        1.9619194702        2.5572748578
 H          6.8241892643        4.0427630358        1.2577454534
 H          5.6446193982        4.0151580190       -0.9080129038
 H          4.7184414278        1.8676617218       -1.7749764524
 H          2.8337571993       -0.7042912578       -1.9668886078
 H          3.3412308117        0.3469379397        1.4651550479
 H          1.6377165011        0.0112349697        3.2252767573
 H         -0.4907933444       -1.1144338251        2.6880716874
 H         -1.4896092889       -2.8405994322        1.1708982163
 C         -1.3303643702       -2.9001333874       -0.9379041857
 C         -2.6248623764       -3.2688054607       -1.5974293989
 C         -1.7019262206       -2.2890734737       -2.2542853125
 H         -1.1637872155       -2.6072646220       -3.1358337503
 H         -1.9768245030       -1.2464913783       -2.2638602955
 H         -2.7209963088       -4.2555535212       -2.0248992305
 H         -3.5352694435       -2.8965979981       -1.1503319775
 H         -0.5510512944       -3.6569028082       -0.9545520849
