  62
        -98.94230326
 C         -0.8668242274       -1.2993230927       -0.0115831211
 C         -1.8292562730       -0.9914065285        0.9756440644
 C         -2.5876265297        0.2558399786        0.7840866369
 C         -2.3213499441        1.0297932249       -0.2819199517
 C         -2.9487809897        2.3471952254       -0.6663192396
 C         -4.4672932917        2.4892938319       -0.4960301727
 C         -5.2705765224        1.2045011313       -0.7452673903
 H         -6.0708300555        1.4179072062       -1.4561883067
 H         -4.6295209880        0.4434568069       -1.1930432557
 C         -5.9103070213        0.6453449556        0.5275840025
 H         -6.3357076336        1.4730251283        1.0993516769
 H         -6.7340623414       -0.0152997865        0.2468606202
 C         -4.9754368114       -0.1575139071        1.4314863617
 H         -5.5159722777       -0.3939963616        2.3512797621
 H         -4.7245277570       -1.1087834586        0.9544371999
 C         -3.6548148811        0.5372310501        1.8024150143
 H         -3.2968564735        0.1021454565        2.7400204186
 H         -3.7977353699        1.6047664421        1.9530752470
 H         -4.6896429425        2.8591592051        0.5039070988
 H         -4.7911325211        3.2624107627       -1.1949834064
 H         -2.6878918662        2.4858676504       -1.7180349063
 H         -2.4506001776        3.1386953828       -0.0984066927
 O         -1.3642519206        0.7065109853       -1.1969284507
 C         -0.6109505275       -0.4507491296       -1.0873090038
 O          0.2299947711       -0.6067388496       -1.9914386639
 O         -2.0447752858       -1.7252353670        1.9792563504
 C         -0.0613130679       -2.5771315738        0.1124859468
 C          1.4195072261       -2.2898962418        0.1111354776
 C          2.3485827548       -3.1379800649       -0.4800888094
 C          3.6987546384       -2.8377152750       -0.4393226127
 C          4.1503798959       -1.6859608233        0.1779460562
 C          3.2289874835       -0.8340433759        0.7771542174
 C          1.8799969780       -1.1472013037        0.7519496675
 H          1.1781814331       -0.4813800776        1.2328231317
 N          3.6494864919        0.3436078759        1.4148782681
 S          2.7053770047        1.7137333304        1.3996041002
 O          3.6243577390        2.7751592790        1.7601885690
 O          1.5705195991        1.5589531156        2.2774646045
 C          2.1485667977        1.9919006285       -0.2728201670
 C          0.9948452274        2.7309420940       -0.4351905230
 C          0.5731401905        3.0513833248       -1.7144857237
 C          1.3039662896        2.6178430241       -2.8081997754
 C          2.4573855619        1.8725269725       -2.6301577304
 C          2.8935344094        1.5637486906       -1.3521397947
 H          3.7889832301        0.9839781013       -1.1996385208
 H          3.0175857159        1.5247755396       -3.4829937258
 H          0.9667503867        2.8549433180       -3.8048872394
 H         -0.3267892301        3.6287926250       -1.8527864172
 H          0.4444573742        3.0273200358        0.4446796561
 H          4.6303508080        0.5628861939        1.3215098722
 H          5.2024358962       -1.4457773890        0.2003404329
 H          4.4088046686       -3.5049562993       -0.9034524367
 H          2.0141925595       -4.0346054532       -0.9755011459
 H         -0.3268175333       -2.9979993312        1.0947732586
 C         -0.4780614357       -3.5591202791       -0.9652785292
 C         -0.4778114775       -5.0339200454       -0.6975838888
 C         -1.7751841306       -4.2929060098       -0.8084751993
 H         -2.3898217395       -4.4497787834       -1.6821791109
 H         -2.3392045578       -4.1090802970        0.0945701683
 H         -0.2034234746       -5.7035954433       -1.4988010192
 H         -0.1690313620       -5.3655513761        0.2823343609
 H         -0.2136111005       -3.2168629107       -1.9597224775
