  62
        -98.94225186
 C          0.6436983903        1.4426559578        0.5402460880
 C          1.1195913212        0.8724877261       -0.6617367683
 C          2.1695977792       -0.1580584671       -0.5367754189
 C          2.5912728245       -0.5069593146        0.6929202493
 C          3.7197912582       -1.4342639481        1.0569712936
 C          5.0997508095       -0.7896701196        0.8374035584
 C          5.2514356523       -0.0097714475       -0.4664801196
 H          6.2244217629        0.4883729302       -0.4424865480
 H          4.4904824249        0.7718217612       -0.5078005523
 C          5.1879315348       -0.8479994054       -1.7411706710
 H          5.9902095973       -1.5891514084       -1.7220416522
 H          5.3786472824       -0.1748637109       -2.5808974961
 C          3.8650678718       -1.5714418158       -1.9997016327
 H          3.7755231641       -2.4501446249       -1.3680673201
 H          3.8873144410       -1.9303816444       -3.0326020563
 C          2.6221516209       -0.6960891193       -1.8719773011
 H          1.7623603559       -1.2480962693       -2.2703696319
 H          2.7322902259        0.1777182717       -2.5237158492
 H          5.8575205462       -1.5734991029        0.8851436553
 H          5.2820493454       -0.0945183820        1.6607115177
 H          3.6127280207       -1.6623852980        2.1195741124
 H          3.6375214936       -2.3642712599        0.5044866020
 O          2.0520400990        0.0245284705        1.8286409229
 C          1.0793938414        1.0028166179        1.7879528581
 O          0.6888309984        1.3948901421        2.9080834236
 H         -1.6120705807        0.2168891084        0.5108688143
 C         -2.0956780603        0.9018110006       -0.1705841633
 C         -1.5795005035        2.1824177145       -0.3216509110
 C         -2.2207581304        3.0601080059       -1.1867068559
 C         -3.3426502574        2.6551626710       -1.8885462627
 C         -3.8509945400        1.3788927715       -1.7380572782
 C         -3.2190161061        0.4938627855       -0.8704271225
 N         -3.6912535128       -0.8148569597       -0.7265881852
 S         -3.3109645142       -1.7776258037        0.5730559110
 O         -4.2243821838       -2.8955040349        0.4579511630
 O         -3.3616593554       -1.0560214248        1.8236565077
 C         -1.6632162159       -2.3613943271        0.2429616371
 C         -0.7460642153       -2.4219387164        1.2723557436
 C          0.5039809978       -2.9666550491        1.0267948369
 C          0.8132551683       -3.4355730675       -0.2398292653
 C         -0.1133278897       -3.3547903691       -1.2674230709
 C         -1.3668808941       -2.8174214982       -1.0258572579
 H         -2.1154462272       -2.7480358449       -1.7974040384
 H          0.1353506735       -3.7158562451       -2.2525578734
 H          1.7812506788       -3.8717527171       -0.4274035100
 H          1.2249166332       -3.0228357677        1.8264790137
 H         -1.0220953641       -2.0366785644        2.2423559715
 H         -4.5842787580       -1.0212350641       -1.1461601855
 H         -4.7241689844        1.0627118715       -2.2876573098
 H         -3.8294729796        3.3448451843       -2.5612689401
 H         -1.8411774393        4.0605055106       -1.3144346606
 C         -0.3700859499        2.5693487302        0.4932539360
 H         -0.6997748017        2.7266336849        1.5318356804
 C          0.3037185622        3.8350550468       -0.0006123312
 C         -0.1348269205        5.1775184682        0.5000437539
 C          1.1758928056        4.6034385765        0.9445900463
 H          2.0879011959        5.0412579630        0.5673260959
 H          1.2568853285        4.2295614087        1.9553017288
 H         -0.9424376524        5.2055006348        1.2160637786
 H         -0.1195320818        6.0138834663       -0.1825892654
 H          0.6325302182        3.7530348268       -1.0305480311
 O          0.7073813275        1.2219154805       -1.7988869208
