  62
        -98.94280298
 C         -2.7117348294       -1.2093100994        0.2030061104
 C         -2.6582624397       -0.3244018020       -0.9013810381
 C         -3.6804473870        0.7303757704       -0.9210517326
 C         -4.6045467187        0.7905426816        0.0542278598
 C         -5.7175082581        1.7973698204        0.1602896160
 C         -5.2984773899        3.1226601433        0.8116814483
 C         -4.4115568570        4.0210707337       -0.0514321817
 H         -4.8773659968        4.1594963818       -1.0276117576
 H         -4.3773055850        4.9982222235        0.4344033560
 C         -2.9753754651        3.5092808360       -0.2315224803
 H         -2.7578235864        2.7555133680        0.5289446125
 H         -2.2733832218        4.3313212107       -0.0752135754
 C         -2.6810609954        2.9187580904       -1.6105941012
 H         -2.7595565641        3.7009288680       -2.3689736918
 H         -1.6526585847        2.5482461864       -1.6117476712
 C         -3.6022027319        1.7583799763       -2.0090527701
 H         -4.5960968038        2.1322358812       -2.2536308108
 H         -3.1814993853        1.2747172999       -2.8940298085
 H         -4.7883899330        2.9033238263        1.7525100410
 H         -6.2126501215        3.6714690018        1.0493965814
 H         -6.1321410579        1.9915903261       -0.8292296321
 H         -6.4926935842        1.3398650249        0.7787349223
 O         -4.6413346052       -0.0998114431        1.0813786828
 C         -3.6844226482       -1.0929005346        1.1988940905
 O         -3.8092920244       -1.8063512000        2.2146929915
 H          0.4244702878       -1.7385812047       -1.3036905647
 C          0.6070531565       -1.4185543793       -0.2902128001
 C         -0.3494120484       -1.6448738165        0.6864596170
 C         -0.0965322646       -1.2029239582        1.9824938557
 C          1.0823268799       -0.5497886310        2.2877125445
 C          2.0290729941       -0.3117547889        1.3059535061
 C          1.7855554127       -0.7456160976        0.0103052160
 N          2.7220168384       -0.4791131968       -0.9993576955
 S          4.3515882323       -0.7295779808       -0.7134011272
 O          4.9417070741       -0.9083532980       -2.0220235702
 O          4.5670361960       -1.7956423558        0.2375314825
 C          4.9120273663        0.8178284434       -0.0326580540
 C          4.6249675531        1.9775571110       -0.7255585541
 C          5.0648620941        3.1883413307       -0.2150736018
 C          5.7837949038        3.2189422169        0.9706822077
 C          6.0672235613        2.0456198690        1.6525663251
 C          5.6286239725        0.8312146934        1.1478940005
 H          5.8202164232       -0.1052031755        1.6473861612
 H          6.6264765561        2.0713544195        2.5740018061
 H          6.1248913787        4.1630391940        1.3652794111
 H          4.8452961227        4.1028478830       -0.7422602344
 H          4.0651794316        1.9125803842       -1.6437437154
 H          2.4451705528       -0.8012290766       -1.9147136559
 H          2.9481330769        0.2020414546        1.5359282069
 H          1.2657143284       -0.2169131956        3.2981031545
 H         -0.8441787463       -1.3732832400        2.7452091246
 C         -1.6731115003       -2.3052485378        0.3847963282
 H         -1.9813870795       -2.8678522708        1.2761065970
 C         -1.6341295435       -3.2518561109       -0.7963976014
 C         -0.9276924148       -4.5659909546       -0.6578570425
 C         -2.4233874898       -4.5235480056       -0.7410270780
 H         -2.9000999933       -4.8733373364       -1.6444812729
 H         -2.9915744513       -4.7210855282        0.1562761480
 H         -0.4781731136       -4.7913062555        0.2976616783
 H         -0.3754502306       -4.9486279575       -1.5028316581
 H         -1.5827342531       -2.7463218695       -1.7524714371
 O         -1.8130640110       -0.4014146851       -1.8307985930
