  62
        -98.94103426
 C         -1.7280129365        0.0390208985       -0.9267383486
 C         -2.9240101269        0.7938767379       -0.8483829358
 C         -4.1444991998        0.0301245077       -0.5524501014
 C         -4.0832186987       -1.3001133364       -0.3678149436
 C         -5.2433985330       -2.2110616556       -0.0712972153
 C         -5.6319217091       -2.2659161601        1.4126411483
 C         -6.3318209472       -1.0167045540        1.9495635866
 H         -7.1721398072       -0.7653911161        1.3015910507
 H         -6.7414184397       -1.2748432000        2.9282384347
 C         -5.4158608429        0.2053185176        2.1053735113
 H         -4.3719385328       -0.1166374563        2.0907288154
 H         -5.5926075680        0.6714295883        3.0773853041
 C         -5.6148763068        1.2855822107        1.0423464395
 H         -4.8911029901        2.0838208288        1.2251735585
 H         -6.6163650120        1.7117665470        1.1352692034
 C         -5.4248600892        0.7949683636       -0.3986739298
 H         -6.2728367940        0.1816446029       -0.7023702088
 H         -5.3715367021        1.6683539234       -1.0532416915
 H         -6.3053571396       -3.1164806795        1.5413172684
 H         -4.7331798507       -2.4613912324        2.0020844916
 H         -6.1074949458       -1.9089057420       -0.6637226660
 H         -4.9398131175       -3.2122040736       -0.3846523826
 O         -2.9161583784       -1.9917506959       -0.4514830755
 C         -1.7226801883       -1.3448343104       -0.7178372760
 O         -0.7319072342       -2.1020817188       -0.7529605695
 O         -3.0011879895        2.0407588353       -1.0121386264
 C         -0.3667327186        0.6437040183       -1.2262400223
 C          0.2768534479        1.2398973162        0.0029875191
 C         -0.3523413584        2.2264299639        0.7543353628
 C          0.2799708354        2.7734235559        1.8556597060
 C          1.5558398335        2.3711218248        2.2106364586
 C          2.1954526757        1.3907067329        1.4621184534
 C          1.5449485916        0.8208747420        0.3770387056
 H          2.0383118397        0.0440446375       -0.1867902350
 N          3.4878793818        0.9572541368        1.7897841183
 S          4.5887289896        0.6341613941        0.5698795348
 O          5.8821698993        0.7836840647        1.2017332617
 O          4.3488604979        1.4559328318       -0.5928014072
 C          4.3349122240       -1.0832161202        0.1792491624
 C          4.1125745368       -1.4618114874       -1.1295645664
 C          3.9357773810       -2.8053962508       -1.4189274109
 C          3.9865964405       -3.7422976601       -0.3987536393
 C          4.2154799974       -3.3465036038        0.9104301855
 C          4.3929222245       -2.0047152078        1.2057242244
 H          4.5760874071       -1.6594233319        2.2095651814
 H          4.2536795091       -4.0796326335        1.7000303215
 H          3.8454864362       -4.7869890162       -0.6268230006
 H          3.7551681924       -3.1146479843       -2.4360457592
 H          4.0759426815       -0.6997632181       -1.8927026313
 H          3.9163508605        1.4421832716        2.5647267363
 H          2.0541130548        2.8123452835        3.0607091416
 H         -0.2197855277        3.5341210658        2.4365331026
 H         -1.3367126468        2.5603508819        0.4649499016
 H          0.2645137082       -0.1953942076       -1.5494406022
 C         -0.3884540004        1.6773979178       -2.3381706672
 C          0.9119238335        2.0991532812       -2.9516101981
 C         -0.0518264015        1.2617166453       -3.7367251281
 H         -0.5867355929        1.7214918163       -4.5542731586
 H          0.1935849564        0.2229795719       -3.9047252053
 H          1.0355018955        3.1351238307       -3.2287226053
 H          1.8175036402        1.6407403554       -2.5808427386
 H         -1.1515759878        2.4328744790       -2.2070244174
