  62
        -98.93286829
 C          1.8251147635        0.8350288618        0.5574096597
 C          2.7752164670        0.8475475544       -0.4911095324
 C          3.7157613473       -0.2916819779       -0.5345498562
 C          3.6102398303       -1.2830727708        0.3682164628
 C          4.3892523846       -2.5718788959        0.5289835375
 C          5.7354564207       -2.7643871638       -0.1650844543
 C          6.8508556206       -1.8452509576        0.3305503786
 H          7.1057386193       -2.1266972215        1.3555103925
 H          7.7335171450       -2.0163259610       -0.2897504343
 C          6.5254224845       -0.3535673735        0.3288710249
 H          5.7217849867       -0.1525379546        1.0404297628
 H          7.4101409939        0.1814504676        0.6849289481
 C          6.1437442987        0.2314892501       -1.0298561852
 H          6.9180392099       -0.0052727150       -1.7621099171
 H          6.1093617668        1.3188610231       -0.9204886203
 C          4.7825695116       -0.2200896811       -1.5888549562
 H          4.8647797543       -1.1675143608       -2.1160442115
 H          4.4495965308        0.5299254994       -2.3121415684
 H          5.6224038155       -2.6752699130       -1.2414742993
 H          6.0435975384       -3.7940400113        0.0364492326
 H          4.5221111721       -2.7039237237        1.6074638708
 H          3.7153342000       -3.3710837820        0.2012085592
 O          2.6422108178       -1.2746402606        1.3320182050
 C          1.7482381892       -0.2293640888        1.4573057558
 O          0.9417045261       -0.3555390372        2.4012873357
 O          2.8530787072        1.7491388460       -1.3631278464
 C          0.8046803109        1.9398647771        0.7780215067
 C         -0.4616942335        1.6261177573        0.0244284152
 C         -0.4438647764        1.3761681556       -1.3445999632
 C         -1.6152169155        1.0786733980       -2.0167715657
 C         -2.8215244485        1.0103559348       -1.3406589490
 C         -2.8447903543        1.2330608233        0.0296488791
 C         -1.6688753808        1.5442957417        0.7012827678
 H         -1.6910713138        1.7086096630        1.7699847324
 N         -4.0569668545        1.1409702320        0.7301266190
 S         -5.1372288571       -0.0667929102        0.3213150628
 O         -5.9051614496        0.3407188714       -0.8289240536
 O         -5.8957751199       -0.3142945531        1.5269449149
 C         -4.1472624148       -1.4923941350       -0.0971280632
 C         -4.3537186298       -2.1312187510       -1.3031113602
 C         -3.5808906694       -3.2372244608       -1.6180096132
 C         -2.6150521014       -3.6799604627       -0.7276346355
 C         -2.4200911117       -3.0283362660        0.4806600876
 C         -3.1941785835       -1.9255757984        0.8030930700
 H         -3.0583799861       -1.4053895815        1.7378772650
 H         -1.6639370237       -3.3664864620        1.1714884339
 H         -2.0089355334       -4.5373504468       -0.9745098143
 H         -3.7307693384       -3.7470735255       -2.5560352313
 H         -5.1101742828       -1.7485879042       -1.9690713390
 H         -3.9681932886        1.2375579081        1.7307204964
 H         -3.7430203591        0.7910240730       -1.8550709609
 H         -1.5908557930        0.8967403811       -3.0803904570
 H          0.4972235078        1.4219215564       -1.8715625041
 H          0.5664548810        1.8966446927        1.8529069277
 C          1.3486173052        3.3334976080        0.4966112849
 C          0.8721357811        4.2056768230       -0.6217619754
 C          0.4958745838        4.5328236731        0.7899992739
 H          0.9488179789        5.3889863542        1.2666546759
 H         -0.5270247012        4.3522064653        1.0861900780
 H          1.6061776363        4.8192069344       -1.1213402048
 H          0.1037100499        3.8281574872       -1.2774378708
 H          2.4004061983        3.4151873848        0.7498259883
