  62
        -98.93929055
 C         -1.4484461275       -1.1572874015        0.3495383317
 C         -2.5212892953       -1.0195970531       -0.5634966011
 C         -3.6758895197       -0.2457398058       -0.0813396420
 C         -3.6465406919        0.2879834293        1.1530217491
 C         -4.7293367730        1.1424890386        1.7445668128
 C         -4.4828200780        2.6305895658        1.4595211645
 C         -4.1708183409        2.9363578195       -0.0055261352
 H         -3.2133625003        2.4811090955       -0.2700409124
 H         -4.0458743908        4.0179640907       -0.0925766677
 C         -5.2454524290        2.4651743671       -0.9953014666
 H         -5.4316960680        3.2640282957       -1.7163141283
 H         -6.1816896184        2.2820379337       -0.4666216111
 C         -4.8653806840        1.2198984712       -1.7985728016
 H         -3.8824193746        1.3634434160       -2.2548422323
 H         -5.5888830712        1.1054012100       -2.6102921125
 C         -4.8443306754       -0.0983907744       -1.0148309994
 H         -4.7526329514       -0.9124958668       -1.7398239630
 H         -5.7865288432       -0.2217152383       -0.4768609581
 H         -3.6374036198        2.9643440218        2.0654925740
 H         -5.3658170405        3.1923967250        1.7697587365
 H         -5.6901105644        0.8379010514        1.3341295336
 H         -4.7399514502        0.9859186033        2.8245169354
 O         -2.5908677217        0.1482547410        1.9945378215
 C         -1.4641618211       -0.5618743990        1.6126480297
 O         -0.5609761448       -0.5935772930        2.4705053477
 H          1.0332349452        0.3921468571        0.2727623041
 C          1.1147634918        0.0565051505       -0.7508693389
 C          0.5228933645       -1.1477678926       -1.1149518607
 C          0.5972624388       -1.5513870174       -2.4409177891
 C          1.2363377266       -0.7572922657       -3.3784142898
 C          1.8444406301        0.4281111289       -3.0065994125
 C          1.7913801678        0.8311744107       -1.6783784521
 N          2.4477673767        2.0039493014       -1.2209518322
 S          3.9427843498        1.6698856525       -0.5106016752
 O          4.4842429980        2.9517448096       -0.1192185897
 O          4.7654083547        0.9030327445       -1.4243633028
 C          3.5567481112        0.6869263548        0.9164874906
 C          3.1096317914        1.3170697836        2.0604710287
 C          2.7694379402        0.5440812253        3.1586123393
 C          2.8765233708       -0.8362666244        3.0914619979
 C          3.3334678118       -1.4523800944        1.9366762202
 C          3.6785522819       -0.6861640620        0.8355205983
 H          4.0333810799       -1.1241526841       -0.0837357854
 H          3.4140964976       -2.5269683371        1.8893829035
 H          2.5937576388       -1.4346813274        3.9427805668
 H          2.4083799346        1.0154238721        4.0582845100
 H          3.0361242744        2.3925167615        2.0679035465
 H          2.6030248200        2.6785143641       -1.9596423145
 H          2.3634530687        1.0362023832       -3.7328730612
 H          1.2714996136       -1.0726606381       -4.4103543481
 H          0.1370611970       -2.4763693728       -2.7458954692
 C         -0.1919273594       -1.9216483336       -0.0350715248
 H          0.4488859141       -1.9119456560        0.8576611836
 C         -0.4953285436       -3.3579678077       -0.4009850880
 C          0.6167218475       -4.3622047382       -0.4005005858
 C         -0.4336133772       -4.4061405495        0.6672214437
 H         -1.1584918541       -5.2060078038        0.6455020062
 H         -0.1663742140       -4.0867030621        1.6638687520
 H          1.6013948308       -4.0116464455       -0.1307694185
 H          0.6156973135       -5.1351603794       -1.1537744387
 H         -1.2726063740       -3.4547407650       -1.1486438571
 O         -2.5279690873       -1.5170734808       -1.7195007675
