  62
        -98.93557040
 C         -1.9483297657       -1.0003849922        0.2152161386
 C         -2.3792564930       -0.0069559664        1.1256957186
 C         -2.5712201227        1.3530935306        0.5946124140
 C         -2.2953805396        1.5970468360       -0.6998218040
 C         -2.3272012922        2.8808302877       -1.5035813511
 C         -3.0014112845        4.1333790918       -0.9501275063
 C         -4.5221755220        4.0380756031       -0.8274876111
 H         -4.8814585896        4.9366013257       -0.3215766043
 H         -4.9500134431        4.0273207248       -1.8329531951
 C         -5.0478927571        2.8085580111       -0.0913013303
 H         -4.7634405801        1.9062683753       -0.6364936744
 H         -6.1400372885        2.8576576280       -0.0953164813
 C         -4.5951633595        2.6731857494        1.3610170123
 H         -5.1586924254        1.8492237628        1.8070317929
 H         -4.8426453003        3.5834672100        1.9103593839
 C         -3.1001650719        2.3718552691        1.5632842245
 H         -2.5028084810        3.2801906135        1.5278475001
 H         -2.9728583302        1.9383397051        2.5598238994
 H         -2.7764630491        4.9423883272       -1.6504325213
 H         -2.5556132233        4.4086075115        0.0012606177
 H         -2.7842041608        2.6213799823       -2.4641126797
 H         -1.2769857911        3.1127462400       -1.7153005011
 O         -1.8563166268        0.6130306372       -1.5369339071
 C         -1.6494487945       -0.6887375088       -1.1113394178
 O         -1.2243819956       -1.4473365644       -2.0028222757
 O         -2.5848676122       -0.2435076744        2.3481483986
 C         -1.6653881057       -2.3890368281        0.7614887826
 C         -0.2849901162       -2.8130933292        0.3252357541
 C         -0.0006342321       -4.0103060493       -0.3166341458
 C          1.2924033556       -4.2938087260       -0.7227263679
 C          2.3170495479       -3.3899847678       -0.5153744632
 C          2.0434035400       -2.1921327354        0.1367285393
 C          0.7573483192       -1.9271746625        0.5715936300
 H          0.5540667694       -0.9910086966        1.0735205410
 N          3.0605695805       -1.2495441938        0.3789213704
 S          2.6497794164        0.3878067254        0.2947120045
 O          2.0852234184        0.7888044573        1.5605408670
 O          1.8497798251        0.6565958612       -0.8789542673
 C          4.2724725700        1.1070607952        0.1161762728
 C          4.7199736082        1.4702985036       -1.1398326117
 C          5.9949345265        1.9985443789       -1.2706834473
 C          6.7974199126        2.1500093501       -0.1499123515
 C          6.3344196536        1.7807201251        1.1044537503
 C          5.0603240318        1.2533333958        1.2424342022
 H          4.6527151611        0.9606938543        2.1959104858
 H          6.9600538015        1.9022792274        1.9738504393
 H          7.7889502403        2.5611173177       -0.2545884775
 H          6.3556024611        2.2889838507       -2.2442348058
 H          4.0566221634        1.3401356985       -1.9801623523
 H          3.8974803320       -1.4400720637       -0.1563594201
 H          3.3182489374       -3.6022555438       -0.8585799059
 H          1.4999233196       -5.2245523265       -1.2287518615
 H         -0.7936008811       -4.7091638856       -0.5261476689
 H         -1.6436126409       -2.2477301558        1.8561469905
 C         -2.7448487403       -3.4228093418        0.4811623297
 C         -4.1582973595       -3.0072488978        0.2057818611
 C         -3.3321110101       -3.6195019345       -0.8831866661
 H         -3.5679815729       -4.6256026890       -1.1980536197
 H         -2.9693394718       -2.9848349352       -1.6760100675
 H         -4.9578905094       -3.5896685961        0.6384415462
 H         -4.3657208375       -1.9480163257        0.1553201467
 H         -2.6196027687       -4.3133860026        1.0895732525
