  62
        -98.93742200
 C         -2.4400877508       -1.1440070005        0.2637832024
 C         -3.0992006768       -0.2885540402        1.1839870595
 C         -4.4380867931        0.1769016225        0.8043491176
 C         -4.9658820762       -0.2336314407       -0.3631410564
 C         -6.2966278972        0.2007222903       -0.9037982012
 C         -6.1557318491        1.4472779511       -1.7886474285
 C         -5.3383101961        2.5697588511       -1.1492049646
 H         -4.3035756401        2.2381178022       -1.0356065565
 H         -5.3318181603        3.4071552765       -1.8502178118
 C         -5.8684906608        3.0459628970        0.2104531205
 H         -5.8623668985        4.1378581282        0.2259009514
 H         -6.9033670360        2.7261973152        0.3377061505
 C         -5.0435436252        2.5797227203        1.4115779935
 H         -3.9890297090        2.8153555257        1.2462356310
 H         -5.3709784541        3.1440875850        2.2888992751
 C         -5.1546394936        1.0897795373        1.7589667876
 H         -6.2064683537        0.8091201847        1.8445143241
 H         -4.6783435493        0.9387906133        2.7322433186
 H         -5.6663838608        1.1562016164       -2.7208654337
 H         -7.1551542663        1.8141098015       -2.0293609893
 H         -6.7074937674       -0.6142676005       -1.5019686362
 H         -6.9704894292        0.4050183205       -0.0740366149
 O         -4.3142768356       -1.0632795561       -1.2136545865
 C         -3.0323075488       -1.5288859190       -0.9404034249
 O         -2.5663503266       -2.2554939201       -1.8349132375
 O         -2.5869643068        0.0631244146        2.2820512404
 C         -1.0557245618       -1.6214314373        0.6633022511
 C          0.0161890808       -0.7058957034        0.1325061264
 C          0.0817307972       -0.3618486799       -1.2143025717
 C          1.0944409639        0.4563713823       -1.6818688135
 C          2.0612150337        0.9460397842       -0.8197481908
 C          1.9967276512        0.6181624749        0.5267014854
 C          0.9787074576       -0.1998488711        0.9939030829
 H          0.9347680448       -0.4471496665        2.0466384842
 N          3.0092936685        1.0969599960        1.3985647301
 S          4.3905125426        0.1266399060        1.3629924964
 O          4.0359167246       -1.2749018801        1.3084399332
 O          5.1873703869        0.5364759114        2.4977875698
 C          5.1845805244        0.6151288438       -0.1497785129
 C          5.1452635586       -0.2286805400       -1.2420432044
 C          5.7460514208        0.1788030351       -2.4228644043
 C          6.3702102431        1.4153288145       -2.4889004820
 C          6.4020219508        2.2500949399       -1.3813641354
 C          5.8028358142        1.8494538512       -0.1979323037
 H          5.8061776969        2.4623299410        0.6881324811
 H          6.8895211567        3.2100587496       -1.4375110789
 H          6.8354122569        1.7299546454       -3.4097998072
 H          5.7218294795       -0.4679089659       -3.2851905904
 H          4.6459570408       -1.1793778864       -1.1449544822
 H          2.6942573620        1.1611954581        2.3579350548
 H          2.8496953608        1.5879812334       -1.1771004646
 H          1.1329209263        0.7134894237       -2.7293440928
 H         -0.6679655357       -0.7488090583       -1.8883941920
 H         -1.0419494051       -1.5354365726        1.7622035805
 C         -0.7921469855       -3.0837831020        0.3328998341
 C          0.1050333825       -3.5474555349       -0.7705282921
 C          0.5387101819       -3.6989785588        0.6547684796
 H          0.5604732005       -4.6867880472        1.0899889021
 H          1.3240321828       -3.0459497527        1.0094691653
 H         -0.1974601760       -4.4243628055       -1.3219856278
 H          0.6004319098       -2.8053114732       -1.3755259808
 H         -1.6670199829       -3.6979297836        0.5236519765
