  62
        -98.93876763
 C         -1.7088605997       -0.1164997675        0.2609012652
 C         -2.8592526060       -0.9083619346        0.0196065772
 C         -4.0365511874       -0.1838503791       -0.4832763911
 C         -3.9663746189        1.1365898004       -0.7246977516
 C         -5.0711683762        1.9994763933       -1.2718088801
 C         -6.0620418319        2.4962068411       -0.2099604605
 C         -7.0112645878        1.4324063247        0.3431899930
 H         -7.7854757798        1.9565130452        0.9071279530
 H         -7.5024704692        0.9201078067       -0.4846454364
 C         -6.3409647274        0.4030576130        1.2638179610
 H         -6.9522208887        0.2617373574        2.1580345899
 H         -5.3733862267        0.7873246203        1.5949816844
 C         -6.1364680857       -0.9736698545        0.6316347732
 H         -7.1072295355       -1.4256163993        0.4164891072
 H         -5.6212656206       -1.6104803312        1.3551415583
 C         -5.3081977732       -0.9582213333       -0.6596774783
 H         -5.0383602575       -1.9879620095       -0.9060899433
 H         -5.8958301130       -0.5444050721       -1.4787688093
 H         -6.6624645295        3.2849153878       -0.6692984847
 H         -5.4978083275        2.9443142735        0.6112444331
 H         -5.6103212885        1.4558038892       -2.0482346315
 H         -4.5894664253        2.8679249608       -1.7265353961
 O         -2.8338223613        1.8581910151       -0.5063053232
 C         -1.6981293954        1.2590638240        0.0120400622
 O         -0.7529807514        2.0493437796        0.2136456549
 O         -2.9232318296       -2.1499379337        0.2035455348
 C         -0.4097108550       -0.6854407519        0.8080636856
 C          0.4474641376       -1.2312211309       -0.3053603664
 C         -0.0390084545       -2.1808256722       -1.1992768412
 C          0.7689496370       -2.6648288151       -2.2114278682
 C          2.0665775573       -2.2067639188       -2.3599380375
 C          2.5609882076       -1.2546913409       -1.4766484364
 C          1.7517007641       -0.7822835265       -0.4522513835
 H          2.1354305397       -0.0348362448        0.2239471145
 N          3.8799696999       -0.7913758980       -1.5840714311
 S          4.2347365755        0.8254993665       -1.3179410008
 O          3.1546393160        1.6844781092       -1.7410855328
 O          5.5060076780        1.0209722786       -1.9827898088
 C          4.4863510249        0.9293183348        0.4409693090
 C          5.4723003966        0.1409502737        1.0015917532
 C          5.6833641588        0.2047575527        2.3693455944
 C          4.9101872849        1.0526358964        3.1484665137
 C          3.9275378368        1.8410925524        2.5695631216
 C          3.7108625438        1.7820872200        1.2013258224
 H          2.9459843209        2.3695160964        0.7154158941
 H          3.3235157976        2.4986034790        3.1744164402
 H          5.0722109124        1.1003693853        4.2137489163
 H          6.4462906616       -0.4062888098        2.8240208445
 H          6.0537123088       -0.4998074087        0.3600475414
 H          4.3944329071       -1.1595880287       -2.3710628486
 H          2.6927961670       -2.5809825443       -3.1557380351
 H          0.3819913376       -3.4029651606       -2.8978964051
 H         -1.0521621035       -2.5354529490       -1.0882644477
 H          0.1209534298        0.1812916054        1.2333129149
 C         -0.6268060246       -1.6796489968        1.9422844551
 C         -0.2879614333       -3.1343192029        1.8536664444
 C          0.5580534087       -2.2219025144        2.6863238694
 H          0.5050910860       -2.2977371195        3.7617034459
 H          1.5363652613       -1.9649477336        2.3074791276
 H         -0.9488520090       -3.8293813464        2.3486743554
 H          0.1236441120       -3.5095114512        0.9305221337
 H         -1.4992553037       -1.4274375162        2.5364956487
