  62
        -98.93772832
 C         -1.7932937632       -0.4271847934        0.3391350706
 C         -2.9335783456       -0.4152173532        1.1731654901
 C         -4.2395182392       -0.5678389341        0.5083661364
 C         -4.2863981371       -0.7007704810       -0.8306787113
 C         -5.4566872009       -0.9085015773       -1.7696413351
 C         -6.8891299451       -0.6659790867       -1.3008510128
 C         -7.2233607900        0.7926560533       -0.9904915815
 H         -7.2272850272        1.3554371631       -1.9274081098
 H         -8.2330341787        0.8308869699       -0.5757139850
 C         -6.2665821169        1.4993446282       -0.0335120539
 H         -6.6211740472        2.5255290381        0.0967722265
 H         -5.2737899970        1.5579756935       -0.4845700667
 C         -6.1457903392        0.8703980782        1.3532476429
 H         -7.1371521415        0.7704655912        1.7994254244
 H         -5.5668584054        1.5572491222        1.9768362821
 C         -5.4450692230       -0.4986963513        1.4010057016
 H         -5.0803789683       -0.6548334857        2.4205183205
 H         -6.1374942245       -1.3060873423        1.1753118370
 H         -7.5414500260       -0.9861342941       -2.1179142001
 H         -7.1195697417       -1.2987463607       -0.4488744379
 H         -5.2537317989       -0.2768383819       -2.6402749155
 H         -5.3779711224       -1.9446575441       -2.1167805515
 O         -3.1539308845       -0.7134936614       -1.5939319792
 C         -1.8907603580       -0.5724362642       -1.0433672842
 O         -0.9626092556       -0.5924067912       -1.8726565023
 O         -2.8668417939       -0.2838998155        2.4257889451
 C         -0.4196468648       -0.2711682362        0.9623445130
 C          0.2939188440        0.9324704648        0.3979064588
 C         -0.4132032159        2.1176372028        0.2103353172
 C          0.2078835728        3.2388625202       -0.3028973643
 C          1.5545558814        3.2107208127       -0.6204914358
 C          2.2746672670        2.0403000871       -0.4211125650
 C          1.6431916992        0.9097838055        0.0807214632
 H          2.2208496739        0.0124081771        0.2267111447
 N          3.6387571906        1.9754753996       -0.7394032257
 S          4.6962219360        1.1626132460        0.2692502211
 O          4.2864651679        1.2464915265        1.6514820699
 O          5.9958205723        1.7207317194       -0.0408342433
 C          4.6577608759       -0.5290285787       -0.2838584810
 C          4.5599494705       -0.7939089622       -1.6354046584
 C          4.5785096257       -2.1124731393       -2.0610741118
 C          4.7035779281       -3.1377876223       -1.1358485396
 C          4.8072673607       -2.8549031577        0.2171805535
 C          4.7843403171       -1.5381085075        0.6501092995
 H          4.8501208048       -1.2735334300        1.6935473314
 H          4.9044366688       -3.6533657519        0.9358185547
 H          4.7186331369       -4.1629768766       -1.4708917168
 H          4.4943654951       -2.3364216987       -3.1123669436
 H          4.4611188633        0.0253488038       -2.3277135439
 H          4.0380681634        2.8356151413       -1.0856245643
 H          2.0427878004        4.0868065512       -1.0198191639
 H         -0.3580277758        4.1465220082       -0.4507561919
 H         -1.4634094885        2.1458673734        0.4675757407
 H         -0.6018657346       -0.0847740496        2.0319770397
 C          0.3644465641       -1.5594191406        0.8212106118
 C          1.3760680388       -1.9520902997        1.8546905203
 C          0.0734192273       -2.6868597634        1.7643119164
 H          0.0750588211       -3.6952716476        1.3791830541
 H         -0.6694638682       -2.5121604605        2.5289474259
 H          2.2718857304       -2.4577584761        1.5274045956
 H          1.5289274183       -1.2806095900        2.6864879197
 H          0.5659419274       -1.8101051562       -0.2145015414
