  62
        -98.94892594
 C         -0.8876764797       -1.3626579171        0.2051468884
 C         -1.4391016132       -0.2937157380        0.9481099582
 C         -2.2669289464        0.6506339349        0.1901631194
 C         -2.3987279511        0.5016540679       -1.1407546086
 C         -3.1561236795        1.4213693785       -2.0606373767
 C         -4.6598359067        1.1265697432       -2.1463725350
 C         -5.4672038038        1.5176325559       -0.9080783913
 H         -5.2577272110        2.5572580683       -0.6543981503
 H         -6.5224572173        1.4545306141       -1.1808110450
 C         -5.2175551850        0.6250845074        0.3154422315
 H         -4.7375002668       -0.3028990354       -0.0036218725
 H         -6.1736457105        0.3521420959        0.7675246934
 C         -4.3678598048        1.2711317887        1.4093997564
 H         -4.2318890168        0.5407176084        2.2107821040
 H         -4.8979826619        2.1315901578        1.8233696705
 C         -2.9776399111        1.7310133184        0.9487793124
 H         -3.0597219185        2.6340305117        0.3432831461
 H         -2.3829799593        1.9521445262        1.8379432497
 H         -4.7948260555        0.0618410643       -2.3504177360
 H         -5.0520933003        1.6810899748       -3.0020561075
 H         -2.7179571313        1.2918803494       -3.0530265162
 H         -3.0033460079        2.4559806700       -1.7506517386
 O         -1.8249466767       -0.5221418251       -1.8256429303
 C         -1.0625499096       -1.4791990107       -1.1744631855
 O         -0.6125011294       -2.3715680702       -1.9192247987
 O         -1.2399804400       -0.1292746839        2.1821676471
 C          0.0089984693       -2.3645920540        0.9110271106
 C          1.3816558831       -2.3118607413        0.2869754334
 C          2.1123357010       -3.4343268077       -0.0780370859
 C          3.3384393546       -3.2940273912       -0.7060120301
 C          3.8486084588       -2.0428139889       -0.9983711915
 C          3.1318068882       -0.9127459272       -0.6196909407
 C          1.9285673164       -1.0571151485        0.0479802393
 H          1.3763909037       -0.1766887393        0.3429221949
 N          3.6116428453        0.3775819423       -0.8867011560
 S          2.5355597649        1.6242925711       -1.1854251643
 O          1.3442676611        1.1782965156       -1.8699833562
 O          3.3309321942        2.6147819724       -1.8831353723
 C          2.1412036022        2.2564990043        0.4306911909
 C          0.8366735757        2.5918160570        0.7316734582
 C          0.5535158262        3.1262216586        1.9785429980
 C          1.5733780401        3.3105231199        2.8985469388
 C          2.8790532482        2.9682971993        2.5806218286
 C          3.1701332303        2.4402275017        1.3335054771
 H          4.1715747070        2.1652083026        1.0478057400
 H          3.6690306459        3.1113588009        3.3001549747
 H          1.3461720838        3.7217114356        3.8694182749
 H         -0.4619778225        3.3896381828        2.2266654391
 H          0.0674775655        2.4122804463       -0.0046140387
 H          4.4236346833        0.4209580093       -1.4849310724
 H          4.7874721270       -1.9369231516       -1.5200898246
 H          3.8945301623       -4.1737190212       -0.9928439833
 H          1.7159252777       -4.4182519652        0.1117716638
 H          0.0834949654       -2.0108853765        1.9503417932
 C         -0.6098724399       -3.7459274359        0.9058269668
 C         -0.3007532243       -4.7168781655        2.0051956360
 C         -1.6528803937       -4.0759806684        1.9298478674
 H         -2.4965985407       -4.6793622786        1.6302190436
 H         -1.8983195181       -3.3097130302        2.6505362945
 H         -0.2178986483       -5.7647096518        1.7590400964
 H          0.3705768765       -4.3911044446        2.7850447357
 H         -0.7523616822       -4.1321505185       -0.0973857515
