  62
        -98.93811925
 C         -2.0151678723       -1.7116191015       -0.1382054760
 C         -2.6025547404       -0.9479498480       -1.1766881290
 C         -3.7125059343       -0.0664918631       -0.7641953345
 C         -4.1466200593       -0.0794762262        0.5071157315
 C         -5.2104167520        0.8196698858        1.0656397006
 C         -4.5984609376        2.1054843984        1.6394961313
 C         -3.6153078480        2.7996599828        0.6959968783
 H         -2.7352555011        2.1653625003        0.5605179572
 H         -3.2741508121        3.7106214292        1.1932122412
 C         -4.1982585874        3.1563063348       -0.6787170042
 H         -3.8928074175        4.1733150275       -0.9339436928
 H         -5.2880204032        3.1457210797       -0.6329652591
 C         -3.7306006671        2.2525014806       -1.8213037744
 H         -2.6385286056        2.1885028290       -1.8140966141
 H         -4.0222379689        2.7203078934       -2.7656972327
 C         -4.2997273051        0.8278842488       -1.8195272992
 H         -4.0443534336        0.3674431784       -2.7784948740
 H         -5.3874914813        0.8660692537       -1.7339521754
 H         -4.0669494387        1.8551668231        2.5605774388
 H         -5.4088732711        2.7924835812        1.8898741741
 H         -5.9247441520        1.0625282043        0.2815819883
 H         -5.7275884271        0.2860452579        1.8647721517
 O         -3.6193661012       -0.8969674837        1.4547698519
 C         -2.5304487465       -1.6982469142        1.1628428784
 O         -2.1158400148       -2.3682254520        2.1299805615
 H         -0.0886904905        0.0310054266        0.0633259762
 C          0.5378882293       -0.6364109787        0.6374801390
 C          0.3258481663       -2.0065249170        0.5868718272
 C          1.1401574454       -2.8356005707        1.3505188115
 C          2.1369465713       -2.3061498754        2.1496026508
 C          2.3528849372       -0.9401779069        2.1870059248
 C          1.5465209969       -0.1023234224        1.4263640537
 N          1.7367069436        1.2968473218        1.4325822794
 S          2.2817226407        1.9820099308        0.0035614679
 O          2.4604581863        3.3871955747        0.2909978759
 O          1.3808161892        1.6460720922       -1.0670692692
 C          3.8732050340        1.2172076941       -0.2564709474
 C          3.9245782811       -0.0555935971       -0.7894645564
 C          5.1562578422       -0.6784388688       -0.9166288283
 C          6.3081210496       -0.0229243329       -0.5092220808
 C          6.2399846352        1.2556012912        0.0235961922
 C          5.0111799950        1.8817926681        0.1576842084
 H          4.9093144155        2.8754353066        0.5633725406
 H          7.1374224987        1.7643930252        0.3366673772
 H          7.2642605184       -0.5117246983       -0.6095579890
 H          5.2078758257       -1.6718492714       -1.3321264835
 H          3.0105572518       -0.5337638987       -1.1021072798
 H          2.3133587894        1.6216530355        2.1970327715
 H          3.1289589602       -0.5215897279        2.8101398470
 H          2.7522914501       -2.9612544499        2.7467043111
 H          0.9694721239       -3.9017580647        1.3311223823
 C         -0.7712546620       -2.5798829953       -0.2779376205
 H         -1.0287749046       -3.5665110554        0.1441418506
 C         -0.3042986532       -2.8121209530       -1.7056205147
 C          0.6145917325       -1.8725937082       -2.4200766214
 C          1.1111373581       -3.2198187754       -1.9939407247
 H          1.2814758200       -3.9654402348       -2.7556646139
 H          1.8024099062       -3.2645696294       -1.1657602709
 H          0.9493239119       -0.9897926336       -1.8957368335
 H          0.4228680947       -1.6900998031       -3.4665271766
 H         -1.0774042485       -3.2710818603       -2.3112854707
 O         -2.2576683184       -0.9778252548       -2.3849027156
