  62
        -98.93872786
 C         -1.3578878740       -1.5985790775        0.4222381175
 C         -1.5658040093       -0.3236820206        1.0013648219
 C         -2.7726267683        0.4102647777        0.5816622101
 C         -3.5952210421       -0.1432402092       -0.3290398788
 C         -4.9159539875        0.3270270707       -0.9032535045
 C         -5.4065555540        1.7525025772       -0.6669247998
 C         -4.5988643663        2.8292073699       -1.3919768913
 H         -4.8103532486        2.7570961832       -2.4618275350
 H         -4.9442466074        3.8071235632       -1.0502922819
 C         -3.0847699009        2.7447667755       -1.2163415170
 H         -2.6336808521        3.5386202427       -1.8173348979
 H         -2.7211881320        1.7953088651       -1.6146288717
 C         -2.5819278285        2.9073498194        0.2159323481
 H         -2.9493676083        3.8489226147        0.6282346345
 H         -1.4908587568        2.9568557427        0.1763562750
 C         -2.9548541885        1.7736046708        1.1844588353
 H         -2.2720737784        1.8223201812        2.0376289638
 H         -3.9654534861        1.8950652308        1.5668124207
 H         -6.4312624915        1.7968571989       -1.0457996980
 H         -5.4570144848        1.9596046217        0.3979309024
 H         -4.8583459207        0.1408501896       -1.9805234917
 H         -5.6676994675       -0.3678748548       -0.5127767988
 O         -3.3347100332       -1.3632906032       -0.8836658601
 C         -2.2156966061       -2.1089979314       -0.5500519157
 O         -2.1189760531       -3.1804589534       -1.1773704225
 O         -0.7815195423        0.1791954765        1.8495790851
 C         -0.1203602598       -2.3782393939        0.8353502131
 C          0.8923581255       -2.2842741322       -0.2791797236
 C          1.1305874065       -3.3107775277       -1.1838893003
 C          2.0442588868       -3.1369881176       -2.2087669478
 C          2.7505500184       -1.9548894004       -2.3360330146
 C          2.5203167573       -0.9216643435       -1.4339022163
 C          1.5861476747       -1.0884550324       -0.4247404864
 H          1.3962238289       -0.2802607269        0.2663118475
 N          3.2170763457        0.2924602709       -1.5317366917
 S          3.8073861595        1.0171555901       -0.1387937505
 O          4.9541452314        1.7782640682       -0.5911931462
 O          4.0626046862        0.0413606414        0.8945264980
 C          2.5437117398        2.1622463087        0.3663994060
 C          2.1912612079        3.1656971508       -0.5153468999
 C          1.2533852060        4.1042539616       -0.1196669137
 C          0.6877236009        4.0248750533        1.1450568090
 C          1.0495522128        3.0097608795        2.0163009006
 C          1.9884349995        2.0684753992        1.6258621823
 H          2.2915300426        1.2625279804        2.2751727895
 H          0.6005949516        2.9378609894        2.9935702073
 H         -0.0386933085        4.7598487381        1.4549407177
 H          0.9647006477        4.8940017659       -0.7946836271
 H          2.6620748020        3.1985337532       -1.4838532665
 H          3.8964160603        0.3277647532       -2.2781344927
 H          3.4739201073       -1.8282677180       -3.1275826152
 H          2.2170260739       -3.9382891191       -2.9114501757
 H          0.5877325604       -4.2372548965       -1.0960409280
 H          0.2892727753       -1.8358801233        1.6991770059
 C         -0.4390743211       -3.7949047884        1.2602660861
 C          0.5851893021       -4.5735373377        2.0286502179
 C         -0.6575438095       -4.0906527735        2.7125739596
 H         -1.4124507626       -4.8138777300        2.9824385073
 H         -0.5706305870       -3.2698784626        3.4095642118
 H          0.6864260619       -5.6297260370        1.8311573241
 H          1.5169716614       -4.0779325318        2.2579077230
 H         -1.0560899639       -4.3298796467        0.5492564735
