  62
        -98.93967225
 C          2.2803291576        0.8932194571        0.6406956738
 C          3.4232369740        0.9044985932       -0.1966748955
 C          4.4434722744       -0.1109311324        0.0995005036
 C          4.2610793604       -0.9786604448        1.1099340025
 C          5.2197519440       -2.0554020001        1.5410165251
 C          5.1110190145       -3.3529164362        0.7283044389
 C          5.6612772939       -3.2770948084       -0.6965052821
 H          6.6751442957       -2.8765654994       -0.6720256458
 H          5.7240989564       -4.3011118401       -1.0699678134
 C          4.8019776506       -2.4508837224       -1.6637386622
 H          3.8037443471       -2.3155122712       -1.2402053471
 H          4.6791277382       -2.9988948244       -2.6006453955
 C          5.3813171029       -1.0800787801       -2.0128000163
 H          6.3185871216       -1.2066833153       -2.5590658883
 H          4.6742250447       -0.5668090482       -2.6690866233
 C          5.6415696914       -0.1781125435       -0.7996014549
 H          6.5113896335       -0.5316871622       -0.2468123622
 H          5.8419701110        0.8332036384       -1.1612768598
 H          4.0625061106       -3.6589189459        0.6987848446
 H          5.6664617343       -4.1226199340        1.2692115291
 H          6.2412405728       -1.6772541537        1.4901809895
 H          4.9835234784       -2.2810899450        2.5831546824
 O          3.1510927120       -0.9566922714        1.8962132271
 C          2.1417419244       -0.0355697694        1.6772033981
 O          1.1856312842       -0.1334398287        2.4749464779
 H         -1.4469230436        1.0900608417        0.7223148046
 C         -1.1173965908        1.0832436857       -0.3060972569
 C          0.1868640478        1.4412893256       -0.6167344288
 C          0.5946166879        1.4053572572       -1.9462706548
 C         -0.2870525969        1.0109085108       -2.9355181021
 C         -1.5853304512        0.6495934668       -2.6222221528
 C         -2.0054887971        0.6899080378       -1.2975448585
 N         -3.3358712843        0.3774200656       -0.9664292073
 S         -3.6748043987       -0.3847267910        0.5006385053
 O         -3.5966512598        0.5891533986        1.5599777708
 O         -2.8619335260       -1.5721311257        0.6461737262
 C         -5.3806271621       -0.8269675439        0.2261357324
 C         -6.3384029313        0.1651313083        0.3230704309
 C         -7.6645457107       -0.1583003487        0.0851583882
 C         -8.0096650285       -1.4610015485       -0.2437703555
 C         -7.0381084508       -2.4461443278       -0.3350083241
 C         -5.7091941605       -2.1288988719       -0.0997552024
 H         -4.9206175624       -2.8624138411       -0.1519909558
 H         -7.3095244179       -3.4585070863       -0.5875376264
 H         -9.0427511296       -1.7105510321       -0.4273217913
 H         -8.4228915305        0.6044369071        0.1579106922
 H         -6.0236824878        1.1602374541        0.5906346730
 H         -3.8261760674       -0.0744895045       -1.7269719510
 H         -2.2711761649        0.3418736165       -3.3970850774
 H          0.0417208535        0.9804008492       -3.9634375303
 H          1.6104925765        1.6736558153       -2.1913266032
 C          1.1242210418        1.8693806943        0.4877207766
 H          0.5646734387        1.8126093174        1.4320491976
 C          1.5736688639        3.3041372759        0.2856254151
 C          0.6128986563        4.4097645837        0.5981907029
 C          1.8004234169        4.1753058149        1.4821902249
 H          2.6136757801        4.8848440149        1.4558268816
 H          1.6328116860        3.7388542183        2.4566557127
 H          0.6084494024        5.2829587470       -0.0357519775
 H         -0.3610853946        4.1322542428        0.9738238230
 H          2.2382722040        3.4335691998       -0.5577623185
 O          3.6121316512        1.7114480949       -1.1442747063
