  62
        -98.94388888
 C         -0.7477747713       -2.0708779094       -0.4857988918
 C         -0.0119923938       -2.2367658580        0.7160211510
 C          1.4508616147       -2.3290472840        0.5571633841
 C          2.0073711289       -2.2745418908       -0.6652224859
 C          3.4690102862       -2.4284269163       -0.9903446293
 C          4.3035054600       -1.1502738136       -0.8350499818
 C          4.5719755262       -0.7230727265        0.6081424570
 H          4.9657292024       -1.5685649978        1.1731321683
 H          5.3503401578        0.0417544197        0.5795426100
 C          3.3438948493       -0.1471234647        1.3249259893
 H          2.5924893052        0.1398790358        0.5869540824
 H          3.6180285013        0.7672952353        1.8570757489
 C          2.6912886271       -1.0768407868        2.3478835035
 H          1.7957624082       -0.5740493935        2.7234839772
 H          3.3702321363       -1.2315966811        3.1902621011
 C          2.2809666762       -2.4494854088        1.7990306688
 H          3.1668813254       -3.0560569314        1.6067368186
 H          1.6716441326       -2.9490730250        2.5567950372
 H          3.8055841078       -0.3351742626       -1.3649000100
 H          5.2640739767       -1.3302094141       -1.3230871206
 H          3.5180133214       -2.7460121767       -2.0342943481
 H          3.8956075955       -3.2167671838       -0.3688278633
 O          1.2658270936       -2.1130906292       -1.7939965294
 C         -0.1124076183       -1.9880386372       -1.7283373043
 O         -0.6598361575       -1.8201975843       -2.8362650894
 O         -0.5219212741       -2.3309989736        1.8602328059
 C         -2.2608800917       -1.9189006926       -0.5450419971
 C         -2.6208823851       -0.4545435987       -0.5862806059
 C         -3.4982814120        0.0399368250       -1.5438254303
 C         -3.7879630297        1.3915731564       -1.5997465007
 C         -3.1894257868        2.2751166616       -0.7200774671
 C         -2.3083155151        1.7920222676        0.2415153696
 C         -2.0479378323        0.4308909709        0.3167948394
 H         -1.3800179672        0.0631985583        1.0812927354
 N         -1.6804593415        2.6710430309        1.1399620115
 S         -0.0416979324        2.5374263134        1.4513497975
 O          0.2300005076        1.3237331315        2.1717138286
 O          0.2904277326        3.7724436759        2.1279810743
 C          0.7398201850        2.5181615540       -0.1525771602
 C          1.2245423884        3.7067777929       -0.6631800955
 C          1.8001581192        3.7132312973       -1.9232358494
 C          1.8699087798        2.5381598004       -2.6566929091
 C          1.3740775620        1.3537266287       -2.1344190526
 C          0.8073050810        1.3400286014       -0.8692806131
 H          0.4194902725        0.4278350404       -0.4428023883
 H          1.4136341738        0.4359526212       -2.7017773611
 H          2.3128066940        2.5408886278       -3.6401317323
 H          2.1895318646        4.6318943292       -2.3313415753
 H          1.1529692346        4.5949705285       -0.0565341776
 H         -1.9324799831        3.6409883701        1.0137519960
 H         -3.3986104055        3.3325656729       -0.7751535498
 H         -4.4722040019        1.7638394979       -2.3466688511
 H         -3.9391607996       -0.6406164382       -2.2569909524
 H         -2.5588663248       -2.3526062245       -1.5139043072
 C         -3.0053528459       -2.6867807114        0.5360511009
 C         -3.6652647229       -2.0317929450        1.7080023900
 C         -4.5020547954       -2.6081567724        0.6078033218
 H         -5.0587459037       -3.5128727412        0.7992582417
 H         -4.9962792792       -1.9150857231       -0.0563520691
 H         -3.6191879851       -2.5453588291        2.6562379834
 H         -3.6026124995       -0.9582641344        1.7975462386
 H         -2.5600842115       -3.6586645041        0.7206648885
