  62
        -98.94092084
 C         -2.2959819605        0.4789509968       -0.2007656096
 C         -3.5604860642        1.0158428372       -0.5415261828
 C         -4.6674145663        0.0537349509       -0.6182078249
 C         -4.4217343940       -1.2495495064       -0.3899849678
 C         -5.4646601517       -2.3288524902       -0.3826728594
 C         -6.0399841935       -2.5351043082        1.0255851897
 C         -6.4710665454       -1.2393045918        1.7126616189
 H         -6.8877549816       -1.5101250772        2.6852223635
 H         -5.5872284965       -0.6256410682        1.9020146207
 C         -7.5007847639       -0.4161390100        0.9261439475
 H         -7.9794771178       -1.0435882570        0.1735137197
 H         -8.2805587486       -0.0823021420        1.6138382838
 C         -6.9328914833        0.8359842621        0.2553929924
 H         -6.3708988043        1.4209345114        0.9878337045
 H         -7.7713137736        1.4514309865       -0.0812840806
 C         -6.0293789839        0.5900227563       -0.9595218585
 H         -6.5363832445       -0.0675897087       -1.6683420369
 H         -5.8574639820        1.5543848866       -1.4463956834
 H         -6.8927559215       -3.2126021407        0.9540175134
 H         -5.2767351135       -3.0129785837        1.6441989157
 H         -6.2600933820       -2.0630795522       -1.0761137464
 H         -4.9992019568       -3.2581606936       -0.7151986313
 O         -3.1878394470       -1.7317246152       -0.0902318096
 C         -2.0960987433       -0.8829135825        0.0229217704
 O         -1.0289443193       -1.4558054656        0.3162529672
 H          1.5750215954        1.0093898088        0.4545765315
 C          1.3082646351        0.8298055837       -0.5725738576
 C         -0.0000918308        0.9883074069       -1.0007845014
 C         -0.2973893201        0.7529551163       -2.3411411739
 C          0.6853954050        0.3438995376       -3.2203914077
 C          1.9851301428        0.1594114552       -2.7823435496
 C          2.2974544207        0.4092984958       -1.4516600503
 N          3.6248639718        0.2813073503       -1.0025074071
 S          3.9493515663       -0.3070543963        0.5460929019
 O          3.3565980467       -1.6130177056        0.7301705599
 O          3.6037519856        0.7008182289        1.5159366249
 C          5.7250128009       -0.4492388578        0.4444738991
 C          6.2984303445       -1.6841276340        0.2080513837
 C          7.6781015321       -1.7755268072        0.1094304981
 C          8.4565296143       -0.6360604206        0.2454099707
 C          7.8667396685        0.5966401434        0.4834748975
 C          6.4882015060        0.6945346255        0.5844800284
 H          5.9862887104        1.6280697870        0.7776762769
 H          8.4755540198        1.4797590823        0.5911513505
 H          9.5298473932       -0.7098365264        0.1687385079
 H          8.1391836864       -2.7331584063       -0.0714819609
 H          5.6535361825       -2.5437138924        0.1183593559
 H          4.2099679137       -0.1915047299       -1.6791133625
 H          2.7512387290       -0.1723475824       -3.4667962286
 H          0.4376485092        0.1574274978       -4.2547082300
 H         -1.3160624314        0.8857989560       -2.6802755502
 C         -1.1105813252        1.4180572423       -0.0748795321
 H         -1.4780059057        2.3999342384       -0.4101530505
 C         -0.6816281659        1.5298694143        1.3728795086
 C         -0.0252266189        2.7813450096        1.8712532523
 C         -1.4272737409        2.4540389555        2.2864749298
 H         -1.6064205019        2.1393892242        3.3037183107
 H         -2.2351313704        3.0282189406        1.8565799973
 H          0.7671604945        2.6890220313        2.5989704486
 H          0.1189614968        3.5831600091        1.1629531737
 H         -0.3484461557        0.5818243258        1.7835274293
 O         -3.7520439025        2.2396103015       -0.7750359217
