  62
        -98.94004620
 C         -2.4305925303       -0.8393966397        0.0038846837
 C         -2.7640415403        0.5152963684        0.2452036544
 C         -4.1655497403        0.7684783555        0.6040561264
 C         -5.0255141403       -0.2605185753        0.7147981382
 C         -6.4768732903       -0.1653985884        1.1006553789
 C         -7.4131235503        0.1632755109       -0.0701701885
 C         -7.3371208003        1.6036887149       -0.5776089771
 H         -8.1887970703        1.7538540302       -1.2440396259
 H         -7.4550831503        2.2899021383        0.2615181583
 C         -6.0483302603        1.9386099610       -1.3414370544
 H         -5.5525405503        1.0133743334       -1.6442897517
 H         -6.2977268802        2.4812423382       -2.2561219101
 C         -5.0538902903        2.7993160848       -0.5619056676
 H         -4.1662751403        2.9443417497       -1.1830857264
 H         -5.4924035603        3.7805183032       -0.3669461998
 C         -4.6021707703        2.1923768842        0.7730674877
 H         -3.7423932103        2.7611166113        1.1355937522
 H         -5.4037079403        2.2612033084        1.5081799282
 H         -7.1995022703       -0.5245439926       -0.8915549239
 H         -8.4347750803       -0.0276953318        0.2661483900
 H         -6.7560253903       -1.1425365616        1.5005973312
 H         -6.5991889204        0.5801995354        1.8866472548
 O         -4.6558661703       -1.5521440536        0.5015200680
 C         -3.3622050603       -1.8701854506        0.1223142255
 O         -3.1659856303       -3.0886598791       -0.0656064042
 O         -1.9383511103        1.4621472490        0.1704311919
 C         -1.0185506103       -1.2091375864       -0.4060563392
 C         -0.0145822003       -0.7711401547        0.6334188943
 C         -0.3084908003       -0.9333588954        1.9849250530
 C          0.6049669996       -0.5708542631        2.9555919359
 C          1.8432390296       -0.0642482803        2.6018275199
 C          2.1505399497        0.0933337804        1.2564704012
 C          1.2219784297       -0.2521062219        0.2838724784
 H          1.4904572897       -0.1167231037       -0.7505473705
 N          3.3943541697        0.6078847036        0.8559378953
 S          4.1103452797       -0.0579785655       -0.5227513199
 O          3.6323741997        0.6476043937       -1.6848629044
 O          3.9325747997       -1.4922449655       -0.5263613613
 C          5.8236737197        0.3477640622       -0.2342070567
 C          6.6398126897       -0.5825497226        0.3817833960
 C          7.9629390897       -0.2536900046        0.6307818586
 C          8.4446941397        0.9939439983        0.2637963685
 C          7.6141876097        1.9165820732       -0.3549412742
 C          6.2902066597        1.5940323052       -0.6075230168
 H          5.6105918897        2.2746223590       -1.0934272714
 H          7.9933226997        2.8840936355       -0.6419836065
 H          9.4748145297        1.2475100068        0.4583092605
 H          8.6118963597       -0.9702885284        1.1079464929
 H          6.2246711597       -1.5436482747        0.6397245883
 H          4.0512324397        0.6887441975        1.6199615460
 H          2.5606108596        0.2106974037        3.3601427321
 H          0.3557712596       -0.6954411413        3.9988300849
 H         -1.2688502804       -1.3458561176        2.2644539397
 H         -0.9911477903       -2.3089000761       -0.4526109379
 C         -0.7209584602       -0.6598312955       -1.7866759948
 C          0.2223986398       -1.3773870682       -2.7029967405
 C         -1.2486015802       -1.3814856360       -2.9887294006
 H         -1.6147722002       -0.7997252094       -3.8212645560
 H         -1.8006275702       -2.2939828274       -2.8146400478
 H          0.8735343698       -0.7900449732       -3.3338337258
 H          0.6757767498       -2.2885718811       -2.3411814077
 H         -0.7263288403        0.4244993147       -1.8107516263
