  62
        -98.92944327
 C         -1.9972441324       -0.6588161910        0.0808995789
 C         -2.6811113357        0.2484911869        0.9280554814
 C         -3.9416228055        0.8206813342        0.4274716010
 C         -4.3705897072        0.4867588276       -0.8037052062
 C         -5.5806667174        0.9368145822       -1.5953059936
 C         -6.7324895491        1.6701633702       -0.9129949752
 C         -7.5309304897        0.8247034033        0.0786976741
 H         -8.2578043811        1.4733530107        0.5725325761
 H         -8.0867297720        0.0671539927       -0.4796116003
 C         -6.7075263182        0.1014210339        1.1414567602
 H         -6.0467205057       -0.6240488518        0.6626076567
 H         -7.3992514900       -0.4618667570        1.7737402519
 C         -5.8769619628        1.0038578596        2.0518883038
 H         -5.4750517373        0.3802199359        2.8550283370
 H         -6.5200923622        1.7598345875        2.5066290075
 C         -4.6886693385        1.7116845260        1.3777915321
 H         -5.0031705840        2.6258733685        0.8796744420
 H         -3.9763206428        1.9936245816        2.1586767570
 H         -7.4170824784        1.9805441930       -1.7071541246
 H         -6.3724103409        2.5776119987       -0.4370935549
 H         -5.9684206405        0.0364889135       -2.0824583677
 H         -5.1899917839        1.5749530472       -2.3957908019
 O         -3.6594099377       -0.3590457436       -1.6011937183
 C         -2.4737104480       -0.9576965971       -1.1957084343
 O         -1.9784849602       -1.7036008835       -2.0564355097
 O         -2.2505419145        0.5771582998        2.0678552751
 C         -0.7008356748       -1.2554116267        0.6154225587
 C          0.4616295148       -0.8009066846       -0.2313668321
 C          0.9052021371       -1.4232228985       -1.3927524325
 C          1.9593733395       -0.8933546964       -2.1179062827
 C          2.5968343427        0.2640064709       -1.7119849536
 C          2.1605365142        0.9007212929       -0.5573956772
 C          1.1107049862        0.3628415354        0.1718375113
 H          0.7715289848        0.8710023243        1.0654813497
 N          2.8023010848        2.0755855654       -0.1286222618
 S          4.4764558635        2.0776144306       -0.1124930116
 O          4.8455077476        3.0330124258        0.9083703534
 O          4.9742212861        2.3501223852       -1.4378217302
 C          4.9323356193        0.4233002226        0.3771026906
 C          5.6481845554       -0.3797186827       -0.4868271886
 C          5.9514366486       -1.6758186991       -0.1011041034
 C          5.5307757433       -2.1451358220        1.1332840315
 C          4.8155359304       -1.3244939382        1.9922901754
 C          4.5118679128       -0.0274388553        1.6129438293
 H          3.9622702355        0.6372542845        2.2601299234
 H          4.4889605508       -1.6916061800        2.9519613058
 H          5.7608569133       -3.1563856264        1.4294021765
 H          6.5092272594       -2.3154443380       -0.7659348372
 H          5.9519687445        0.0238975691       -1.4389149366
 H          2.4256713743        2.4606405791        0.7249889010
 H          3.4103853866        0.6914875330       -2.2752870042
 H          2.2840618496       -1.3902774467       -3.0194512995
 H          0.4055431147       -2.3010711911       -1.7605050884
 H         -0.5796797012       -0.7564402815        1.5894827328
 C         -0.8304289802       -2.7356027688        0.9542681709
 C         -0.9635243949       -3.8640810813       -0.0222741249
 C          0.2868729876       -3.7220557542        0.7912077161
 H          0.4616999107       -4.4313938598        1.5862825903
 H          1.1828741076       -3.3870474918        0.2926687538
 H         -1.6520202277       -4.6574289775        0.2340548720
 H         -0.9507704388       -3.6419502667       -1.0756638293
 H         -1.4312762064       -2.8476927522        1.8539225467
