  62
        -98.94293415
 C          1.6777051051        0.6755934387        0.8442256539
 C          2.3721311447       -0.0686693877       -0.1357409448
 C          2.4003493801       -1.5331762440        0.0455624842
 C          1.7084855395       -2.0775977979        1.0606317409
 C          1.5200656082       -3.5357008778        1.3824409732
 C          0.2764962545       -4.0989472535        0.6714331378
 C          0.5423149260       -4.6931257198       -0.7091343931
 H          1.1511530850       -5.5946403725       -0.6074386276
 H         -0.4234221161       -4.9884875167       -1.1262718675
 C          1.2227702817       -3.7349689271       -1.6888857200
 H          1.0265031851       -4.0933062679       -2.7018255907
 H          0.7611839270       -2.7483750841       -1.6037434056
 C          2.7406233015       -3.6346680678       -1.4792566065
 H          3.2489944339       -3.8046849471       -2.4311729065
 H          3.0653622891       -4.4308715635       -0.8094610104
 C          3.2359706635       -2.2820517188       -0.9571644521
 H          4.2398769276       -2.4114412934       -0.5359562822
 H          3.3397437533       -1.5890591455       -1.7986409086
 H         -0.4554720233       -3.2932197598        0.5678061460
 H         -0.1691125384       -4.8740914796        1.2988250320
 H          1.3635179314       -3.5947197532        2.4617978771
 H          2.4080951316       -4.1069451644        1.1285571146
 O          1.0044087592       -1.3246631511        1.9523031256
 C          0.9701512654        0.0548153232        1.8714085674
 O          0.2853760628        0.6073695970        2.7567806084
 O          2.9502333360        0.4602765794       -1.1225959931
 C          1.5438558291        2.1846310703        0.7117495389
 C          0.7527751544        2.4583166414       -0.5452644007
 C          1.1589829739        3.3123595090       -1.5605388027
 C          0.4055563617        3.4235726980       -2.7177016663
 C         -0.7422036044        2.6733587324       -2.8957406641
 C         -1.1655676609        1.8282485538       -1.8750027329
 C         -0.4395524683        1.7613264471       -0.6994867172
 H         -0.7753842325        1.1128523082        0.0965178532
 N         -2.3198011675        1.0426984277       -2.0040516013
 S         -2.3984787640       -0.4491494587       -1.2453740812
 O         -1.1086918817       -1.0908814498       -1.1564717176
 O         -3.4114485556       -1.1705194061       -1.9898997314
 C         -3.0460021529       -0.0784989937        0.3698175525
 C         -2.5116917533       -0.6933912405        1.4830889132
 C         -3.0499018870       -0.4149513249        2.7292216458
 C         -4.1130608811        0.4669624413        2.8380828013
 C         -4.6449676300        1.0721965810        1.7089974927
 C         -4.1098624420        0.7977930840        0.4614023236
 H         -4.4942576529        1.2483354861       -0.4383588157
 H         -5.4719594139        1.7580742108        1.7989704782
 H         -4.5268688565        0.6842236974        3.8101741754
 H         -2.6239356357       -0.8785783101        3.6042950664
 H         -1.6717656535       -1.3604571217        1.3655506417
 H         -2.7323392061        1.0277166271       -2.9250975201
 H         -1.3039279067        2.7326488732       -3.8154880153
 H          0.7328597976        4.0859621929       -3.5048045201
 H          2.0720452005        3.8751027842       -1.4565494794
 H          0.9463037888        2.5132987919        1.5744854085
 C          2.8917672861        2.8689792883        0.7551533054
 C          2.9941520624        4.2936866911        1.2081764665
 C          3.4996290267        3.1898816567        2.0863938236
 H          4.5658627163        3.0713775899        2.2074586835
 H          2.9293648768        2.9330274494        2.9673486695
 H          3.7166605633        4.9366296096        0.7287231240
 H          2.0817018478        4.7926410214        1.4974919660
 H          3.5575208494        2.5297491814       -0.0294393484
