  62
        -98.93712774
 C         -2.5521248455       -0.1628159583       -0.1317451999
 C         -2.2392797638       -1.2690293744       -0.9592600325
 C         -1.6112084036       -2.4316652772       -0.3125696196
 C         -1.3823654470       -2.4020252388        1.0111476326
 C         -0.8093147456       -3.4812150462        1.8968245540
 C          0.3968749322       -4.2692178669        1.3722914036
 C          1.3840444636       -3.4547556010        0.5231782823
 H          1.1698263104       -2.3868090415        0.6074941573
 H          2.3949078904       -3.6119654242        0.9056758178
 C          1.3755781471       -3.8586973539       -0.9529143350
 H          2.3048930771       -3.5139693346       -1.4132383240
 H          1.3541009404       -4.9492829401       -1.0213379064
 C          0.2299965116       -3.2797592654       -1.7812964151
 H          0.2967658274       -3.6991042296       -2.7887355631
 H          0.3668473875       -2.1979068922       -1.8760601519
 C         -1.1839016422       -3.5389636966       -1.2322211519
 H         -1.8819948359       -3.5192626796       -2.0737876289
 H         -1.2473714372       -4.5122534971       -0.7508753787
 H          0.0511070594       -5.1241819700        0.7925738703
 H          0.9134880197       -4.6691544077        2.2466768432
 H         -1.6143100990       -4.1810207732        2.1420772996
 H         -0.5336620657       -2.9673222625        2.8209105785
 O         -1.7149522436       -1.3256895429        1.7754739583
 C         -2.2222841434       -0.1604655912        1.2246631742
 O         -2.3518733195        0.7659860557        2.0473541926
 O         -2.4750820699       -1.2840757599       -2.1990985916
 C         -3.0196861936        1.1146081998       -0.8139169901
 C         -2.0243461892        2.1922622848       -0.4630935121
 C         -2.3358595788        3.4027791750        0.1382965225
 C         -1.3238233669        4.2723880828        0.5114327946
 C          0.0061616609        3.9432509745        0.3248906980
 C          0.3253364660        2.7367709315       -0.2895256163
 C         -0.6893246062        1.8984782706       -0.7117126842
 H         -0.4334331414        0.9650014335       -1.1930385311
 N          1.6593044864        2.3358671378       -0.4927486811
 S          1.9672182633        0.6749683343       -0.3523409959
 O          1.7262012783        0.0584959988       -1.6334948944
 O          1.2579333894        0.1211966333        0.7776278048
 C          3.7212377681        0.6960906998       -0.0329332494
 C          4.5822510385        0.9292270238       -1.0889344000
 C          5.9451912471        0.9773408276       -0.8433592716
 C          6.4218455008        0.7922503749        0.4461950284
 C          5.5458435735        0.5566351340        1.4949943725
 C          4.1809809550        0.5094408016        1.2564812037
 H          3.4610739389        0.3229550729        2.0375444867
 H          5.9185151515        0.4095743944        2.4958309797
 H          7.4830713352        0.8291158718        0.6348272200
 H          6.6294370254        1.1575471641       -1.6566023269
 H          4.1647508489        1.0564512387       -2.0740278532
 H          2.3172739185        2.8814871729        0.0476170491
 H          0.7907915832        4.6054779275        0.6582378051
 H         -1.5757052154        5.2089830974        0.9857026724
 H         -3.3640214686        3.6504271044        0.3462342494
 H         -2.9138823798        0.8942837692       -1.8904187063
 C         -4.4718292157        1.5022149507       -0.5976687586
 C         -5.5025078042        0.4624283357       -0.2758309728
 C         -5.1323607547        1.4922736328        0.7468786733
 H         -5.8479702891        2.2715344595        0.9658475895
 H         -4.5376033889        1.1908408216        1.5936760198
 H         -6.4687849770        0.5288173512       -0.7529575340
 H         -5.1541452894       -0.5497413119       -0.1272292406
 H         -4.7815766387        2.2869866354       -1.2816990466
