  62
        -98.94878365
 C          0.9405726128        1.2854962300        0.0466359836
 C          1.9120811203        1.0368415736        1.0429553641
 C          2.6413541207       -0.2323552725        0.9267306699
 C          2.3264549280       -1.0811681157       -0.0687504253
 C          3.0174831453       -2.3886876942       -0.3262618119
 C          4.1897759019       -2.2158333168       -1.3019535250
 C          5.1341353671       -1.0721918703       -0.9321084810
 H          5.9397759668       -1.0635068438       -1.6692896521
 H          4.5999478533       -0.1241862661       -1.0269634612
 C          5.7332347162       -1.1747817309        0.4774980908
 H          5.6349908423       -2.1952742718        0.8495808748
 H          6.8007833180       -0.9514826459        0.4221277020
 C          5.1292502883       -0.2055618756        1.4956589572
 H          5.1417059496        0.8085992716        1.0882952858
 H          5.7637872681       -0.2080356834        2.3860382427
 C          3.6994264452       -0.5215215866        1.9539143346
 H          3.6388132137       -1.5593398108        2.2894894749
 H          3.4721043715        0.1247661883        2.8072386530
 H          4.7480415805       -3.1529822638       -1.3406188227
 H          3.7854761087       -2.0174269115       -2.2969411833
 H          3.3728156676       -2.7964418222        0.6183173820
 H          2.2941120811       -3.0821749191       -0.7576948349
 O          1.3680986432       -0.8201170311       -0.9927512635
 C          0.6502122367        0.3661193651       -0.9616804824
 O         -0.1984531687        0.4795780721       -1.8646991952
 O          2.1575453122        1.8393967088        1.9859625900
 C          0.1477346538        2.5760709308        0.0947063765
 C         -1.3361223653        2.3065386073        0.1495361840
 C         -2.2710874428        3.1660166263       -0.4163929059
 C         -3.6238480053        2.8889963331       -0.3285423740
 C         -4.0734788165        1.7468049880        0.3081937289
 C         -3.1466148189        0.8832792662        0.8808485885
 C         -1.7944973065        1.1766034197        0.8132643955
 H         -1.0905861613        0.5008957217        1.2765613901
 N         -3.5599912350       -0.2893149830        1.5343953907
 S         -2.6648474086       -1.6888528793        1.4044842632
 O         -3.5874315983       -2.7319571730        1.8078154392
 O         -1.4596366679       -1.5956614796        2.1926303940
 C         -2.2547016936       -1.9249198360       -0.3157584348
 C         -1.1022918569       -2.6254656730       -0.6050587828
 C         -0.7896345040       -2.8912555613       -1.9274955018
 C         -1.6289410333       -2.4482171871       -2.9358663409
 C         -2.7836593443       -1.7475417441       -2.6300329363
 C         -3.1074235836       -1.4881447580       -1.3086172470
 H         -4.0011922580       -0.9421419156       -1.0549868828
 H         -3.4307280540       -1.3951385829       -3.4170924779
 H         -1.3758363823       -2.6434468805       -3.9660109373
 H          0.1134365392       -3.4295977253       -2.1677670318
 H         -0.4655200979       -2.9319526705        0.2108524222
 H         -4.5508371158       -0.4792275999        1.4953514390
 H         -5.1280878702        1.5240362382        0.3658804832
 H         -4.3378885975        3.5659711646       -0.7719242946
 H         -1.9380258548        4.0539053650       -0.9284015582
 H          0.4414861531        3.0670974229        1.0355478113
 C          0.5411047669        3.4723611950       -1.0641223982
 C          0.5900957550        4.9612804599       -0.8987929336
 C          1.8621338505        4.1779367484       -1.0121197513
 H          2.4422256169        4.2574789967       -1.9192363273
 H          2.4598205952        4.0396628054       -0.1226616997
 H          0.2984836231        5.5825064351       -1.7322993918
 H          0.3339425450        5.3676768291        0.0680983992
 H          0.2250918020        3.0712880291       -2.0206970979
