  62
        -98.93895319
 C          2.0399657939        1.0565731352       -0.2270678699
 C          2.3687188947        0.2761375754        0.9110848415
 C          2.5643837884       -1.1605012708        0.6932192025
 C          2.3710498385       -1.6638509643       -0.5388183580
 C          2.5458292262       -3.1067736442       -0.9141835269
 C          3.9780435581       -3.3938673837       -1.3863671917
 C          5.0562978580       -2.8539578964       -0.4469010303
 H          6.0242562242       -3.1376205861       -0.8654133976
 H          5.0117519970       -1.7625456464       -0.4468198141
 C          4.9528193027       -3.3644868340        0.9969866725
 H          4.3256530856       -4.2559019652        1.0301760111
 H          5.9487362535       -3.6541633471        1.3383764142
 C          4.4209988857       -2.3352201929        1.9959978649
 H          4.5927504841       -2.7197708130        3.0047765211
 H          4.9858626154       -1.4047857378        1.8991932618
 C          2.9273193668       -2.0041025364        1.8827820369
 H          2.3413386506       -2.9258314206        1.8902246823
 H          2.6471911695       -1.4142616314        2.7605792496
 H          4.0948178723       -4.4734742469       -1.4967692264
 H          4.1160551799       -2.9340316153       -2.3676347417
 H          2.3011613885       -3.7280745180       -0.0545433294
 H          1.8489711307       -3.3343388945       -1.7230451004
 O          2.0384970066       -0.8948904329       -1.6043592693
 C          1.8511824475        0.4793543615       -1.4832632739
 O          1.5503532417        1.0319899770       -2.5574139404
 O          2.4971694953        0.7724921515        2.0640628669
 C          1.7605662708        2.5251903275        0.0449969645
 C          0.3826405547        2.6463699283        0.6495005004
 C          0.1405604762        3.4655755827        1.7456016512
 C         -1.1178993605        3.5180281089        2.3189856497
 C         -2.1476947402        2.7350056755        1.8300361724
 C         -1.9153452646        1.9144188071        0.7316434174
 C         -0.6645034108        1.8956243112        0.1350819261
 H         -0.5030233973        1.2564525934       -0.7211721982
 N         -2.9276316235        1.0955254931        0.2053892874
 S         -2.4669655181       -0.4268995199       -0.3744790661
 O         -1.4410043561       -0.9932600740        0.4717208465
 O         -2.1619437827       -0.3122651318       -1.7785264216
 C         -3.9970889483       -1.3215274573       -0.1703441327
 C         -4.1826851201       -2.0909405490        0.9626486031
 C         -5.3882034579       -2.7536594815        1.1330332213
 C         -6.3833353168       -2.6332643302        0.1746661407
 C         -6.1821847911       -1.8578580974       -0.9577443235
 C         -4.9786943803       -1.1938331426       -1.1351071908
 H         -4.7713364352       -0.5879846636       -2.0017967492
 H         -6.9567435155       -1.7689009967       -1.7021665947
 H         -7.3205478292       -3.1494066129        0.3099580609
 H         -5.5455481735       -3.3596697044        2.0106340594
 H         -3.3764028276       -2.1598603028        1.6754063904
 H         -3.7418749120        1.0396925731        0.8022759206
 H         -3.1213613666        2.7518986103        2.2954726232
 H         -1.2926358978        4.1565862342        3.1714634564
 H          0.9524218511        4.0419945683        2.1639944620
 H          2.4824043686        2.8225359020        0.8239350074
 C          1.9694053249        3.4457546357       -1.1454725286
 C          0.8381343107        4.0042498993       -1.9498236306
 C          1.6218825386        4.9017509210       -1.0425970624
 H          2.2931470531        5.6226452777       -1.4837076232
 H          1.1396217978        5.2378997465       -0.1374855879
 H          0.9761038065        4.0827993942       -3.0171439068
 H         -0.1671011101        3.7335132907       -1.6648369358
 H          2.8699005179        3.1960444724       -1.6963384662
