  62
        -98.93480461
 C         -2.2437344834       -0.8522377452       -0.1422488354
 C         -3.5547915119       -1.1505071201        0.2926535857
 C         -4.6403765327       -0.2906587056       -0.2170691974
 C         -4.3279834890        0.7104965027       -1.0609987784
 C         -5.2503624975        1.7320369306       -1.6709124073
 C         -5.6561247664        2.8302339660       -0.6737879967
 C         -6.0172146188        2.3301615956        0.7227166721
 H         -5.1727516826        1.7725736749        1.1322203076
 H         -6.1662804872        3.2056810698        1.3602215433
 C         -7.2792502448        1.4745205731        0.8025032961
 H         -7.4544372567        1.2526895874        1.8583035785
 H         -8.1293561424        2.0569530607        0.4402587689
 C         -7.2399547077        0.1496937403        0.0385310411
 H         -7.3716659642        0.3096482974       -1.0280992384
 H         -8.0970977972       -0.4428465973        0.3716188185
 C         -5.9999587344       -0.7010548221        0.2960543982
 H         -6.1768062355       -1.7050400974       -0.1083967433
 H         -5.8814090828       -0.8435418351        1.3761610622
 H         -6.4966768254        3.3848934532       -1.0940164880
 H         -4.8137727771        3.5188913937       -0.5718708369
 H         -4.7034825542        2.1955614190       -2.4949119569
 H         -6.1251035955        1.2420580208       -2.0878909571
 O         -3.0453697456        0.9616034842       -1.4538902473
 C         -1.9766086673        0.2044265157       -1.0109922252
 O         -0.8694011906        0.5649323944       -1.4565671895
 O         -3.8155433388       -2.0940357381        1.0876411622
 C         -1.0903320062       -1.7015237405        0.3607876990
 C         -0.1128923201       -0.8288797141        1.1079674009
 C         -0.5773416565       -0.1004575279        2.2010983642
 C          0.2688170079        0.7321128842        2.9057063929
 C          1.5947014174        0.8607962590        2.5300726853
 C          2.0718648061        0.1311631836        1.4482630887
 C          1.2210907079       -0.7167971037        0.7508511534
 H          1.6117719955       -1.2637559186       -0.0895048691
 N          3.4310358515        0.2130793405        1.0867668974
 S          3.8716182434        0.3432397541       -0.5391518552
 O          3.3170103530        1.5480565669       -1.1166290627
 O          3.5821628901       -0.8952423443       -1.2140170992
 C          5.6370095924        0.5196168129       -0.3474286019
 C          6.2127607335        1.7727832366       -0.4331093768
 C          7.5817993358        1.8960680911       -0.2537529776
 C          8.3471670737        0.7703556407        0.0100651519
 C          7.7552835298       -0.4814805642        0.0917276116
 C          6.3874824037       -0.6114498274       -0.0879893117
 H          5.8849471292       -1.5633446998       -0.0422181043
 H          8.3540820307       -1.3548263000        0.2939849112
 H          9.4120604628        0.8688021473        0.1499275889
 H          8.0448391903        2.8674061659       -0.3206318037
 H          5.5789621403        2.6181187599       -0.6485686666
 H          3.9114535424        0.9333699185        1.6116378223
 H          2.2551243929        1.5204706632        3.0728382822
 H         -0.1061033674        1.2932290358        3.7485980367
 H         -1.6173136629       -0.1935979330        2.4839635008
 H         -1.5383401653       -2.4072205917        1.0761696172
 C         -0.4685053941       -2.4877774241       -0.7726758947
 C          0.2617094350       -3.7643885398       -0.4852900570
 C         -1.0722094134       -3.8010663141       -1.1669176190
 H         -1.1111578463       -4.0554328713       -2.2155047078
 H         -1.9271022337       -4.1425613104       -0.6016018490
 H          1.1443782091       -3.9905231130       -1.0642776401
 H          0.3139190801       -4.0867046055        0.5436445182
 H         -0.0910855007       -1.8528547457       -1.5675716478
