  62
        -98.93582191
 C          1.8442343117        1.1800054702        0.1726398984
 C          2.2939272511        0.0551504391       -0.5551689804
 C          3.7190418410       -0.3024605212       -0.4033598403
 C          4.4928568315        0.4218231595        0.4244430787
 C          5.9584968515        0.2557529594        0.7368290286
 C          6.4492842610       -1.1778912205        0.9913301102
 C          7.3427029006       -1.7214814222       -0.1248916994
 H          8.0020638908       -0.9197678128       -0.4639409505
 H          7.9753268704       -2.5109820219        0.2869867114
 C          6.5989839901       -2.3051982333       -1.3249076585
 H          6.1396676398       -3.2539248228       -1.0385486073
 H          7.3395241599       -2.5236820445       -2.0979779284
 C          5.5150869403       -1.4067031736       -1.9241452494
 H          5.3564225100       -1.7209968148       -2.9580041289
 H          5.8511697807       -0.3709695238       -1.9550751307
 C          4.1657877604       -1.5005870723       -1.1961066789
 H          3.3657199002       -1.6619419529       -1.9254862986
 H          4.1542028603       -2.3781747815       -0.5429084679
 H          5.5983627408       -1.8384577300        1.1512644211
 H          7.0306725712       -1.1719783696        1.9147730200
 H          6.1298647719        0.8694901103        1.6240673278
 H          6.5390484715        0.7081254382       -0.0709345321
 O          4.0100977920        1.4925086205        1.1181819275
 C          2.6927510322        1.8937596209        1.0201295173
 O          2.3999557527        2.8809278618        1.7235678262
 O          1.5513442607       -0.6259168215       -1.3108972594
 C          0.3954548719        1.6349169706        0.1017959782
 C         -0.4713804384        0.5705805117        0.7276076696
 C         -0.4985214581        0.4525341333        2.1145411398
 C         -1.2622508683       -0.5226651357        2.7281406111
 C         -2.0113887988       -1.4069142463        1.9703053223
 C         -1.9824294691       -1.3020486579        0.5872140722
 C         -1.2259142289       -0.3130087390       -0.0273729492
 H         -1.2081945891       -0.2514024002       -1.1037912792
 N         -2.7584122096       -2.1936356286       -0.1883504266
 S         -4.4158470995       -1.9941320078       -0.0421590165
 O         -4.8225213393       -2.4045632661        1.2773590641
 O         -5.0012896000       -2.7166504589       -1.1483719455
 C         -4.6637572489       -0.2393257380       -0.2437555085
 C         -4.5904981584        0.5826544033        0.8628112505
 C         -4.6895237779        1.9532554032        0.6848701289
 C         -4.8578007380        2.4751411517       -0.5883362517
 C         -4.9325976785        1.6354742804       -1.6891195407
 C         -4.8275963690        0.2647551906       -1.5185832691
 H         -4.8832450994       -0.4234112104       -2.3469306782
 H         -5.0675043986        2.0452077893       -2.6772798911
 H         -4.9315066376        3.5427030216       -0.7241624629
 H         -4.6302016175        2.6081244041        1.5394079481
 H         -4.4629556583        0.1392640344        1.8365889010
 H         -2.5031878098       -2.1823228198       -1.1662025067
 H         -2.6234353390       -2.1671702255        2.4282425533
 H         -1.2741657681       -0.5981067844        3.8050264212
 H          0.0951488823        1.1370080938        2.7051253388
 H          0.3344733323        2.5327711814        0.7310894871
 C         -0.0132319783        1.9992639691       -1.3101774522
 C         -1.2938135381        2.7463799093       -1.5292008728
 C          0.0211163021        3.4346707686       -1.7360951639
 H          0.3311446920        3.6643542673       -2.7445136742
 H          0.3389591625        4.1645589993       -1.0060455448
 H         -1.8912806084        2.5055914185       -2.3950546524
 H         -1.8730318778        3.0040286505       -0.6556065830
 H          0.2765105513        1.2576406281       -2.0443026914
