  62
        -98.94717665
 C         -1.6025735949       -1.5686046523       -0.2434527820
 C         -2.7603889211       -1.2283837774        0.5029083387
 C         -3.5490337820       -0.1023816205       -0.0070811959
 C         -3.1630930925        0.5270992200       -1.1315421341
 C         -3.8775937253        1.6736806131       -1.7947524216
 C         -3.5371700884        3.0532369301       -1.2142082518
 C         -4.1056059301        3.3335874690        0.1771747928
 H         -3.9654028467        4.3987976735        0.3716893434
 H         -5.1794841393        3.1442092754        0.1739149314
 C         -3.4431098656        2.5316294244        1.3064664167
 H         -2.4924359807        2.1215662098        0.9578504008
 H         -3.2181889336        3.1967664222        2.1430213325
 C         -4.2995233053        1.3902700258        1.8551545244
 H         -3.7241898296        0.8696021602        2.6248044159
 H         -5.1981133862        1.7971740062        2.3242709809
 C         -4.7236028450        0.3580421557        0.8016886614
 H         -5.4940262051        0.7753058430        0.1535566251
 H         -5.1347803689       -0.5123133422        1.3187865244
 H         -2.4515570162        3.1671406531       -1.1930291187
 H         -3.9352379244        3.8017387204       -1.9033397687
 H         -4.9544959963        1.5115628319       -1.7393523255
 H         -3.5796196463        1.6601672628       -2.8456324095
 O         -2.0560160825        0.1601767803       -1.8285844982
 C         -1.2349896107       -0.8726887911       -1.3947505655
 O         -0.2417857350       -1.0597444096       -2.1237807447
 O         -3.1176536892       -1.8406260877        1.5433314053
 C         -0.7207142738       -2.6861220616        0.2920654658
 C          0.5298398688       -2.0395173034        0.8329487139
 C          0.5327654988       -1.5246300876        2.1264648448
 C          1.6272835454       -0.8316943368        2.6096950609
 C          2.7319775520       -0.6146017899        1.8042856917
 C          2.7304843570       -1.1127243894        0.5083821726
 C          1.6477007792       -1.8416214563        0.0370946089
 H          1.6583544046       -2.2118625762       -0.9755044685
 N          3.8200820287       -0.8334172585       -0.3389148705
 S          4.2846829690        0.7751591294       -0.4087466516
 O          4.8004640926        0.9737320297       -1.7454256776
 O          5.2139344098        1.0472489368        0.6609509058
 C          2.7979060129        1.7338920335       -0.1575885948
 C          1.7133447139        1.5105492144       -0.9818733169
 C          0.5579294756        2.2480269167       -0.7811403558
 C          0.5036075945        3.1920254268        0.2321467094
 C          1.6032598952        3.4077011293        1.0483229475
 C          2.7611921969        2.6725164948        0.8541381603
 H          3.6364558381        2.8031826406        1.4696388609
 H          1.5589268517        4.1425089625        1.8358858181
 H         -0.4002319711        3.7609780048        0.3875424327
 H         -0.2937619944        2.0632201818       -1.4176053302
 H          1.7568236035        0.7638231999       -1.7591762023
 H          3.7015794286       -1.2048283598       -1.2709478413
 H          3.5878508923       -0.0596033521        2.1532994098
 H          1.6175389286       -0.4453981623        3.6173457396
 H         -0.3441680625       -1.6608509792        2.7434030397
 H         -1.2773359501       -3.1177740498        1.1342062170
 C         -0.4619918401       -3.7729304210       -0.7291071529
 C          0.1211943487       -5.0764235076       -0.2741060921
 C         -1.3093274146       -5.0083874256       -0.7146113834
 H         -1.5813108773       -5.4569572793       -1.6583877001
 H         -2.0800294505       -5.0780748228        0.0389180987
 H          0.8338375262       -5.5749811711       -0.9132524412
 H          0.3224669529       -5.1897984518        0.7804111359
 H         -0.1617900077       -3.3958659325       -1.6988085189
