  62
        -98.93536105
 C         -2.1739886349       -0.9894489186        0.0110932424
 C         -2.4524867280        0.0196790541        0.9578216738
 C         -2.6553432888        1.3830552522        0.4360794370
 C         -2.5679730003        1.5920056958       -0.8900448613
 C         -2.7066573912        2.8843463903       -1.6550561235
 C         -3.8500732341        3.8215538594       -1.2369409144
 C         -3.3693436120        5.0920630167       -0.5337626189
 H         -2.4619033056        5.4407563924       -1.0309277029
 H         -4.1283617421        5.8678523985       -0.6560975924
 C         -3.0985393486        4.9440977967        0.9623039279
 H         -4.0473526453        4.8405661302        1.4931291632
 H         -2.6314320862        5.8693724040        1.3074273790
 C         -2.2002287063        3.7682078404        1.3520579845
 H         -1.3717339664        3.6643024121        0.6511851632
 H         -1.7612283925        3.9900773221        2.3274680256
 C         -2.9518191903        2.4336724291        1.4713818606
 H         -2.7028829433        1.9572488579        2.4250376925
 H         -4.0307623889        2.6129346604        1.4958943820
 H         -4.5579453101        3.2839514452       -0.6082820469
 H         -4.3819935485        4.1192852131       -2.1419467857
 H         -1.7511295001        3.4128992491       -1.6023263244
 H         -2.8361675261        2.5819701780       -2.6968269034
 O         -2.2960369689        0.5854493058       -1.7694446251
 C         -2.0726884159       -0.7138147807       -1.3512665176
 O         -1.8122520435       -1.5141092277       -2.2702468493
 H          0.2934525872       -0.8780020955        0.3268138074
 C          0.5077945994       -1.9071686288        0.0764102745
 C         -0.5157405994       -2.8458019089        0.0960255690
 C         -0.2099184937       -4.1648985556       -0.2156680348
 C          1.0853537144       -4.5238813246       -0.5468590813
 C          2.0972189502       -3.5831644167       -0.5784682111
 C          1.8005415132       -2.2580366959       -0.2739837160
 N          2.7964042978       -1.2722472432       -0.3556403318
 S          2.6005458495        0.2293431782        0.3715953390
 O          2.3228126789        0.0797308743        1.7838682539
 O          1.6533909891        1.0041239670       -0.3918657870
 C          4.2426454551        0.8851681913        0.1421624599
 C          5.1484415300        0.8330701926        1.1846756025
 C          6.4322814334        1.3152914307        0.9826962870
 C          6.7873552708        1.8366372789       -0.2522174838
 C          5.8669757578        1.8837787980       -1.2889999797
 C          4.5817221036        1.4038143505       -1.0933207935
 H          3.8300712356        1.4260161499       -1.8654232225
 H          6.1452808284        2.2919051595       -2.2472207686
 H          7.7868519584        2.2108931785       -0.4074388482
 H          7.1485820187        1.2826828363        1.7876389069
 H          4.8235554010        0.4269374719        2.1290358837
 H          3.7362797174       -1.6312965127       -0.2679633953
 H          3.1043404406       -3.8630536219       -0.8459536026
 H          1.3091986047       -5.5525984399       -0.7851895654
 H         -0.9871361061       -4.9113876903       -0.2003677199
 C         -1.9045235822       -2.4017556292        0.4902420830
 H         -1.9452255300       -2.3512593079        1.5898020053
 C         -2.9891715893       -3.3430109909        0.0050379855
 C         -3.4304979087       -4.4997417249        0.8499603515
 C         -4.3267700658       -3.3114460015        0.6800455066
 H         -5.2136044152       -3.4119968205        0.0727046456
 H         -4.4420526470       -2.6325729454        1.5126308494
 H         -2.9480644719       -4.6337204975        1.8064836127
 H         -3.7060912698       -5.4207461264        0.3586726653
 H         -2.9741627315       -3.4676744913       -1.0719725678
 O         -2.5253489462       -0.2073850608        2.1986087327
