  62
        -98.94083225
 C          2.5704677832        0.2107841159       -0.4105641094
 C          2.0183776032        0.7301507021        0.7826356911
 C          1.3844534543        2.0610316913        0.7008897223
 C          1.4058885829        2.7184839919       -0.4731679137
 C          0.8253706787        4.0673678382       -0.8135229111
 C         -0.6980507902        4.0363749279       -0.9859778104
 C         -1.4521391422        3.3539719996        0.1511511132
 H         -1.1689401379        2.3003070685        0.1913756410
 H         -2.5173515748        3.3841929454       -0.0963504622
 C         -1.2720227787        3.9911499401        1.5280141556
 H         -1.9888269129        3.5070680346        2.1955563862
 H         -1.5311138718        5.0507509211        1.4697922231
 C          0.1173159103        3.8546189749        2.1606960245
 H          0.0037989248        4.0314867453        3.2340358012
 H          0.8028918548        4.6149580305        1.7939304429
 C          0.7469771621        2.4744531378        2.0040758302
 H          0.0002882909        1.7025030450        2.2275294601
 H          1.5289307489        2.3506844390        2.7625419805
 H         -0.9275383661        3.4954304670       -1.9078338208
 H         -1.0504084990        5.0642755545       -1.0959900428
 H          1.2761874990        4.3659752536       -1.7630493353
 H          1.1087089625        4.8012380913       -0.0648387748
 O          1.9961801574        2.1949167146       -1.5890565082
 C          2.5425557986        0.9277929973       -1.6031151754
 O          2.9800144583        0.5616167980       -2.7155034533
 O          2.0488068085        0.1095994194        1.8787543046
 C          3.1172094199       -1.2047095203       -0.4359331148
 C          2.0449450135       -2.1606370726        0.0326127659
 C          2.3010197817       -3.2709859875        0.8271409807
 C          1.2615255200       -4.0809921645        1.2517083339
 C         -0.0486838351       -3.7915062164        0.9169239901
 C         -0.3127114113       -2.6923025597        0.1080242232
 C          0.7339384199       -1.9110926933       -0.3501603998
 H          0.5153073736       -1.0627724042       -0.9824884242
 N         -1.6285793890       -2.3504836960       -0.2643807255
 S         -2.0011362317       -0.6971767022       -0.2244356965
 O         -1.5375075752       -0.0813679635       -1.4432983665
 O         -1.5405504582       -0.1155094914        1.0145571332
 C         -3.7830965307       -0.7708110935       -0.2446948507
 C         -4.4953686212       -0.4918407490        0.9057134597
 C         -5.8788232439       -0.5778244742        0.8750793400
 C         -6.5217612759       -0.9431247382       -0.2978066455
 C         -5.7928737844       -1.2198709088       -1.4453098400
 C         -4.4101437681       -1.1330712489       -1.4221193041
 H         -3.8020920489       -1.3284378418       -2.2899852184
 H         -6.2961184131       -1.5013819152       -2.3561537164
 H         -7.5979449500       -1.0103362311       -0.3191033711
 H         -6.4476689672       -0.3598362728        1.7645180524
 H         -3.9508514915       -0.2080246651        1.7919779582
 H         -2.3187724441       -2.8772606743        0.2558630743
 H         -0.8596441839       -4.4056889552        1.2783550724
 H          1.4734972636       -4.9378792685        1.8731967146
 H          3.3126418508       -3.4936755435        1.1254591169
 H          3.3434764964       -1.4254780970       -1.4903187573
 C          4.3966605173       -1.3004364418        0.3697573214
 C          5.4731605211       -2.2647741821       -0.0265542715
 C          5.6695927505       -0.7944762092       -0.2372663340
 H          6.3689983365       -0.2685657488        0.3949258409
 H          5.6142897838       -0.4069057348       -1.2444242212
 H          6.0438375721       -2.7484601943        0.7518508004
 H          5.2985310300       -2.8799160156       -0.8963819740
 H          4.2341247703       -1.1130809496        1.4250140852
