  62
        -98.94579282
 C         -2.2080345855       -1.1526637478        0.1954898111
 C         -1.8794914045       -0.2332063821       -0.8305051211
 C         -2.6320315987        1.0313414418       -0.8191530344
 C         -3.5573064119        1.2414114579        0.1349921318
 C         -4.3681070138        2.4959242538        0.2832859244
 C         -3.6731282919        3.5056050532        1.2072573019
 C         -2.2052869951        3.7514885265        0.8579723797
 H         -1.8244837607        4.5018317105        1.5544884058
 H         -1.6383561458        2.8343739920        1.0365138730
 C         -1.9669703684        4.2221209665       -0.5836872145
 H         -1.2566315656        5.0514362557       -0.5673898628
 H         -2.8976854268        4.6006149768       -1.0076557764
 C         -1.3824115448        3.1534806832       -1.5089448196
 H         -0.4991029567        2.7145767814       -1.0389406394
 H         -1.0530643507        3.6457519948       -2.4277268605
 C         -2.3363056201        2.0213663043       -1.9112804615
 H         -3.2621372103        2.4460938311       -2.3045583519
 H         -1.8566340986        1.4476381765       -2.7097474159
 H         -4.2213736588        4.4483474529        1.1640556754
 H         -3.7239375473        3.1306968731        2.2323512991
 H         -4.5277674146        2.9369974093       -0.6987159256
 H         -5.3351850330        2.2301621211        0.7135888238
 O         -3.8313281764        0.3408149554        1.1137325363
 C         -3.1651209512       -0.8738340174        1.1700965149
 O         -3.5046135976       -1.6035254207        2.1244063756
 O         -1.0089210254       -0.4529478348       -1.7098979018
 C         -1.5163275604       -2.5024105563        0.2514789452
 C         -0.0171670390       -2.3440496774        0.3325635184
 C          0.8681620086       -3.1699639864       -0.3488537832
 C          2.2353656820       -2.9913963949       -0.2238518557
 C          2.7504892241       -1.9852072570        0.5719131624
 C          1.8734662405       -1.1492774320        1.2519207047
 C          0.5050389053       -1.3410134212        1.1389766039
 H         -0.1734207668       -0.6904724583        1.6782466370
 N          2.3843813547       -0.1014088719        2.0355932607
 S          3.6433578326        0.8040259854        1.4035974901
 O          4.8974179455        0.1651339651        1.7199173342
 O          3.4647378808        2.1312117066        1.9519522639
 C          3.4158194764        0.8179305483       -0.3667242896
 C          4.4868903677        0.5259735317       -1.1869531372
 C          4.2994423431        0.5272029917       -2.5598272689
 C          3.0474947946        0.8062035236       -3.0855657800
 C          1.9811574055        1.0982314209       -2.2492013662
 C          2.1677006851        1.1122271180       -0.8773054174
 H          1.3497614466        1.3305001073       -0.2084269959
 H          0.9984955273        1.2875404284       -2.6497838200
 H          2.8970273598        0.7926572696       -4.1534469587
 H          5.1265804348        0.3016108274       -3.2135233453
 H          5.4377141733        0.2959621046       -0.7340213608
 H          1.6768680856        0.4923610465        2.4421795970
 H          3.8123567623       -1.8327151198        0.6801991684
 H          2.9100706912       -3.6424708324       -0.7579179336
 H          0.4870034240       -3.9547760915       -0.9809505184
 H         -1.8561673810       -2.9790050260        1.1833060347
 C         -1.9646306457       -3.3537120672       -0.9199501275
 C         -2.0801067299       -4.8409306444       -0.7790113377
 C         -3.3160532940       -3.9981380814       -0.8645959257
 H         -3.9083518436       -4.0360256620       -1.7665075775
 H         -3.8988079680       -3.8478705390        0.0330513581
 H         -1.8265665879       -5.4609426609       -1.6257002918
 H         -1.8306847068       -5.2751264521        0.1774614038
 H         -1.6410859499       -2.9512056020       -1.8728791994
