  62
        -98.93734944
 C          1.9423749242        1.3995615400        0.0052217267
 C          2.5911390515        0.7085095378        1.0550183789
 C          3.7804079241       -0.0674352427        0.6799104969
 C          4.1810204118       -0.0903163256       -0.6042583968
 C          5.4001126864       -0.7825546517       -1.1546345317
 C          5.4080840983       -2.3214653625       -1.0751120651
 C          6.1041086321       -2.8875134649        0.1689482949
 H          6.6812444572       -3.7675261647       -0.1220859937
 H          6.8200574496       -2.1511385867        0.5360464643
 C          5.1811133648       -3.3178938609        1.3130777331
 H          5.7957489236       -3.4558811466        2.2052363171
 H          4.7362043174       -4.2852025607        1.0680906859
 C          4.0373847580       -2.3589554013        1.6435987375
 H          3.2581431264       -2.4427020698        0.8816440112
 H          3.5844474562       -2.6799341811        2.5839703376
 C          4.4505366511       -0.8780067922        1.7511104857
 H          4.1190274347       -0.4678458176        2.7071582270
 H          5.5327974876       -0.7753880984        1.6895059169
 H          4.3867854127       -2.6954156509       -1.1455701857
 H          5.9430927071       -2.6797778459       -1.9560498251
 H          6.2844249257       -0.3899124757       -0.6475040794
 H          5.4551342356       -0.4809516034       -2.2026331691
 O          3.5175110561        0.5761407161       -1.5880545210
 C          2.3778179184        1.3197863032       -1.3177623707
 O          1.8629145367        1.8506394182       -2.3189745563
 O          2.1946563617        0.7382837792        2.2519608613
 C          0.7021087288        2.2170339105        0.3198091615
 C         -0.4901707468        1.6252498031       -0.3915643231
 C         -1.3639671765        2.3636479702       -1.1775903108
 C         -2.4246177445        1.7442137771       -1.8174599188
 C         -2.6439005879        0.3865239719       -1.6801400484
 C         -1.7895175323       -0.3575939625       -0.8749634412
 C         -0.7297253327        0.2648393159       -0.2342608750
 H         -0.0621648501       -0.3172093894        0.3891893415
 N         -2.0094145244       -1.7343302856       -0.7117391684
 S         -3.5779155906       -2.2827455720       -0.5275624055
 O         -3.4597931852       -3.5125329719        0.2244175505
 O         -4.2089152827       -2.3956268228       -1.8191195201
 C         -4.4109447690       -1.0367833572        0.4409343468
 C         -3.8860003119       -0.7085720892        1.6752615372
 C         -4.5106841746        0.2709121542        2.4298474122
 C         -5.6449294020        0.9011631385        1.9408466436
 C         -6.1630092971        0.5562035763        0.7024516340
 C         -5.5406179671       -0.4209306423       -0.0579214075
 H         -5.9066880249       -0.7174562729       -1.0274314764
 H         -7.0461000361        1.0462520810        0.3254445164
 H         -6.1268569004        1.6650811832        2.5302396637
 H         -4.1082102942        0.5401199446        3.3932618681
 H         -3.0049172227       -1.2186636926        2.0310400644
 H         -1.3776553266       -2.1824568011       -0.0654908715
 H         -3.4507088066       -0.1115795320       -2.1926892029
 H         -3.0874584131        2.3275394245       -2.4378981488
 H         -1.2081348660        3.4222102161       -1.3019202409
 H          0.5451557133        2.1001007132        1.4024049185
 C          0.9324584087        3.6818145489        0.0169573153
 C          0.1699857047        4.7334488932        0.7645353219
 C          1.6294100093        4.5306676705        1.0363486809
 H          2.3294367536        5.2775027715        0.6929539023
 H          1.9185163140        4.0569576412        1.9632413991
 H         -0.1321954357        5.6248901815        0.2361276356
 H         -0.5345934849        4.4027072379        1.5122533757
 H          1.1678985105        3.8600605817       -1.0260352945
