  62
        -98.94576519
 C          2.0002264442        1.5145844877       -0.0624933293
 C          1.7037640108        0.2809471765       -0.6919938229
 C          2.8174929846       -0.6733219081       -0.7645937845
 C          4.0332160312       -0.3213600821       -0.3083442929
 C          5.2728907675       -1.1735040447       -0.3471772290
 C          5.3986514890       -2.1462780867        0.8333565013
 C          4.4333215002       -3.3318298377        0.8036363627
 H          4.5068827763       -3.8340288928       -0.1614128471
 H          4.7706821915       -4.0382770649        1.5647674474
 C          2.9701062265       -2.9622776287        1.0854199318
 H          2.5484857339       -3.6687377218        1.8038706371
 H          2.9269586169       -1.9738644379        1.5486621435
 C          2.0629677805       -2.9723013212       -0.1451835970
 H          1.9884463561       -3.9907637792       -0.5324296757
 H          1.0658511063       -2.6490436136        0.1639266423
 C          2.5246716185       -2.0492760595       -1.2805790083
 H          3.3992951610       -2.4677241627       -1.7779338243
 H          1.7117555724       -1.9633073451       -2.0052628407
 H          6.4196691891       -2.5350580425        0.8282037282
 H          5.2614563477       -1.5876716446        1.7622745165
 H          5.3060817137       -1.7301947525       -1.2840351772
 H          6.1227926189       -0.4880521137       -0.3196451133
 O          4.2872387898        0.8972676365        0.2409114334
 C          3.2728934719        1.8260013815        0.4133895555
 O          3.6257426427        2.8749056927        0.9907807350
 O          0.5763766704       -0.0086214916       -1.1670838659
 C          0.8988518927        2.5438252076        0.1203925623
 C         -0.2745303522        1.8863190362        0.8041257836
 C         -0.0574367786        1.2190050054        2.0071452988
 C         -1.0867027745        0.5545767969        2.6449807530
 C         -2.3576874002        0.5382078970        2.0968020354
 C         -2.5863759102        1.2077463466        0.9033834805
 C         -1.5520537832        1.8850938050        0.2695858104
 H         -1.7497959781        2.3965709115       -0.6592344805
 N         -3.8735272277        1.1916330586        0.3343713284
 S         -4.6205331384       -0.2963334119        0.1514814149
 O         -5.6265523318       -0.0853712643       -0.8658717272
 O         -5.1052189934       -0.7482086815        1.4319659880
 C         -3.3539729096       -1.3979178854       -0.4487927939
 C         -2.8379309094       -2.3725809949        0.3796757735
 C         -1.8384337004       -3.2003073441       -0.1052457453
 C         -1.3724482934       -3.0362761460       -1.4000142595
 C         -1.8976554274       -2.0488026823       -2.2176684750
 C         -2.8971611111       -1.2193953844       -1.7390844267
 H         -3.3352102292       -0.4475708688       -2.3516248248
 H         -1.5258941060       -1.9180121244       -3.2209990822
 H         -0.5920592108       -3.6800141063       -1.7741470540
 H         -1.4233961465       -3.9679383044        0.5286377282
 H         -3.2298394400       -2.4691773018        1.3791077605
 H         -3.9385999430        1.7200247050       -0.5239386159
 H         -3.1712695882        0.0157646207        2.5730487655
 H         -0.8990608315        0.0384628239        3.5745540967
 H          0.9390068392        1.2187204391        2.4289738931
 H          1.3044904438        3.3169457963        0.7884004578
 C          0.5588097955        3.1799439817       -1.2112708418
 C         -0.0282970101        4.5579202861       -1.2621211626
 C          1.3878299144        4.3294066410       -1.6961618700
 H          1.6219205336        4.3889828861       -2.7485517769
 H          2.1858571485        4.6704145304       -1.0528041729
 H         -0.7647943496        4.7800963959       -2.0198870499
 H         -0.1951329150        5.0652686436       -0.3239475769
 H          0.2343145822        2.4548238597       -1.9491839067
