  62
        -98.94509933
 C         -2.5601571202       -0.0479010033        0.3779869819
 C         -2.2527337662        0.5773107303       -0.8545007768
 C         -1.9828168738        2.0203039241       -0.7909972634
 C         -2.0559140463        2.6540845365        0.3931250320
 C         -1.8302069007        4.1243992300        0.5973256985
 C         -0.3755404457        4.4431756522        0.9637771186
 C          0.6582517332        3.8058094269        0.0354548498
 H          1.6401295185        4.1657494889        0.3526653335
 H          0.6592301009        2.7229896924        0.1793516098
 C          0.4604873390        4.1145312500       -1.4549326186
 H         -0.1630727679        5.0019404417       -1.5736981817
 H          1.4351822204        4.3404667995       -1.8922327815
 C         -0.1324896071        2.9586946444       -2.2640151943
 H          0.3969923718        2.0356470752       -2.0126397027
 H          0.0354649722        3.1618773280       -3.3252880281
 C         -1.6358071977        2.7152380157       -2.0767847158
 H         -2.1785409545        3.6588511757       -2.1685433997
 H         -1.9699264048        2.0461964662       -2.8752847518
 H         -0.2530537667        5.5285123936        0.9571164250
 H         -0.1864555112        4.0855160773        1.9788803811
 H         -2.1086751341        4.6528470373       -0.3126905165
 H         -2.4785815870        4.4557105453        1.4110192826
 O         -2.3472505631        2.0176049744        1.5582960589
 C         -2.5782907541        0.6519868991        1.5821259462
 O         -2.7998677271        0.1868481234        2.7212871894
 H         -0.2418401673       -0.9344319466        0.5892982644
 C         -0.3929607519       -1.8416439385        0.0223273957
 C         -1.6839031636       -2.3138112845       -0.1745582446
 C         -1.8551023259       -3.4972058828       -0.8816779636
 C         -0.7581184048       -4.1746147405       -1.3865181646
 C          0.5222965230       -3.6845466978       -1.2129086052
 C          0.7036545313       -2.4957688207       -0.5120593070
 N          1.9865620829       -1.9400184714       -0.3810198882
 S          2.2770412515       -0.6135434607        0.6033906014
 O          2.0198590613       -0.9381375510        1.9916408447
 O          1.5807199849        0.5273847893        0.0684671325
 C          4.0304593008       -0.4301196982        0.3419605155
 C          4.9133546676       -1.0620544718        1.1972422035
 C          6.2745978095       -0.9402285489        0.9663763111
 C          6.7275596765       -0.1936003734       -0.1110148797
 C          5.8296998006        0.4374555822       -0.9591532746
 C          4.4674137347        0.3191978977       -0.7336300368
 H          3.7314417748        0.7971181858       -1.3593761753
 H          6.1848801293        1.0205173588       -1.7934762444
 H          7.7872060853       -0.1000069928       -0.2887761006
 H          6.9749461798       -1.4262709820        1.6263454875
 H          4.5156204230       -1.6211141934        2.0290481103
 H          2.7371677925       -2.6146493446       -0.3785824709
 H          1.3743142439       -4.2047003706       -1.6221333264
 H         -0.9045713874       -5.0955532625       -1.9303058571
 H         -2.8473167755       -3.8879110338       -1.0386755274
 C         -2.8365651152       -1.5389150700        0.4191498509
 H         -2.9136552970       -1.8055210279        1.4847932652
 C         -4.1604008625       -1.8397359648       -0.2567338328
 C         -5.0374599887       -2.9480405834        0.2410971026
 C         -5.4303845110       -1.5206748878        0.4713598091
 H         -6.2583341376       -1.1129353124       -0.0887199999
 H         -5.3367856437       -1.1164906279        1.4692450580
 H         -5.6015742174       -3.5217289975       -0.4788321603
 H         -4.6912826304       -3.5181167186        1.0901522652
 H         -4.1314510851       -1.6454714827       -1.3228425768
 O         -2.2230468930       -0.0353693706       -1.9542574197
