  62
        -98.93927239
 C         -0.9380391040       -1.4280694231        0.4697928845
 C         -1.5311973825       -0.8788797485       -0.6927976202
 C         -2.4241723788        0.2810510300       -0.4889084659
 C         -2.6430433263        0.7511804627        0.7520179732
 C         -3.4437038849        1.9402095370        1.2408524820
 C         -4.4986149907        2.5925730323        0.3505446632
 C         -5.6951691165        1.7051980078        0.0116000072
 H         -6.3372129022        2.2534786558       -0.6813752149
 H         -6.2676479582        1.5257281223        0.9250237311
 C         -5.3571604373        0.3461730540       -0.5967321268
 H         -6.2984869355       -0.1625330079       -0.8216182143
 H         -4.8300587671       -0.2650295739        0.1386394981
 C         -4.5348125556        0.3907065433       -1.8840026386
 H         -5.0217272930        1.0440298020       -2.6106550208
 H         -4.5213218084       -0.6201998392       -2.3002338308
 C         -3.0710966212        0.8400688742       -1.7221352755
 H         -2.9796751492        1.9242378866       -1.7417887193
 H         -2.4985564522        0.4563856153       -2.5720969085
 H         -4.0420378575        2.9734329394       -0.5586480657
 H         -4.8758047027        3.4586031053        0.9015422842
 H         -3.9157960799        1.6141303539        2.1729885328
 H         -2.7079806160        2.7051625459        1.5147570936
 O         -2.0589261080        0.1800415357        1.8455899435
 C         -1.2042549594       -0.9021877001        1.7354180008
 O         -0.7543545358       -1.3055115307        2.8260812727
 H          0.9654978905       -0.6349762595       -1.2292985097
 C          1.7522795483       -1.0935971544       -0.6519683153
 C          1.4634779440       -2.1082763617        0.2481399949
 C          2.5109395155       -2.6912753833        0.9533812081
 C          3.8134370454       -2.2702263920        0.7589697243
 C          4.0946482182       -1.2428684885       -0.1238506712
 C          3.0552700009       -0.6499956125       -0.8299954936
 N          3.3006345153        0.4123341015       -1.7185482653
 S          2.3406814127        1.7783864940       -1.5871208943
 O          1.0557871229        1.5621634183       -2.1972998903
 O          3.1451930737        2.8360010140       -2.1622568426
 C          2.1694821428        2.0333210725        0.1697675024
 C          0.9709114754        1.7522852869        0.7914536115
 C          0.8773509172        1.9015910510        2.1663194961
 C          1.9807234883        2.3250011995        2.8904678272
 C          3.1772037020        2.6110991706        2.2502227532
 C          3.2762736771        2.4612375836        0.8770359615
 H          4.1848216366        2.6843512465        0.3416128605
 H          4.0305656285        2.9449652449        2.8180623192
 H          1.9023191381        2.4319301762        3.9607986075
 H         -0.0500141863        1.6672848875        2.6656034078
 H          0.1344210851        1.4205877520        0.1949498679
 H          4.2744281649        0.6716115203       -1.7919806175
 H          5.1082399684       -0.9014139850       -0.2677600107
 H          4.6163493556       -2.7346441266        1.3103188371
 H          2.2964193425       -3.4741366344        1.6649668269
 C          0.0440362380       -2.5859452017        0.4559662046
 H         -0.0089812109       -3.0334379901        1.4585925919
 C         -0.2875978094       -3.6613459656       -0.5616043543
 C          0.1127087350       -5.0796075589       -0.2937885905
 C         -1.3318729598       -4.6845497750       -0.2358811966
 H         -1.9942708610       -5.0105423613       -1.0235171090
 H         -1.8053066849       -4.6222833509        0.7334878099
 H          0.6120704942       -5.2964105546        0.6380601781
 H          0.4479604733       -5.6828705719       -1.1233153429
 H         -0.2412744176       -3.3081495745       -1.5835485617
 O         -1.3368466589       -1.3070139589       -1.8606667631
