  62
        -98.93508146
 C          1.1247742579        1.2127906494        0.9728606698
 C          2.0826955146        1.2977446162       -0.0676290072
 C          3.0553158541        0.1943731184       -0.1293094259
 C          2.9633741765       -0.8226961147        0.7456121159
 C          3.8646158176       -2.0230861703        0.7616702478
 C          3.3102503418       -3.1613260174       -0.1060103400
 C          2.8657891209       -2.7194796872       -1.4997804742
 H          2.5147267150       -3.6093509007       -2.0266388331
 H          2.0145640060       -2.0412926880       -1.4043472639
 C          3.9641602799       -2.0414940609       -2.3304444346
 H          4.9437263337       -2.2751632298       -1.9114488194
 H          3.9400659706       -2.4486504599       -3.3435026458
 C          3.8182632923       -0.5242804229       -2.4566481752
 H          2.8056797359       -0.2773909788       -2.7857621972
 H          4.5074000010       -0.1795581928       -3.2323284750
 C          4.1204345059        0.2798902824       -1.1862554906
 H          5.0896086580       -0.0203094813       -0.7824223560
 H          4.1773382032        1.3353176779       -1.4681110005
 H          4.0785642751       -3.9316752833       -0.1942949855
 H          2.4485952830       -3.5937902571        0.4044823775
 H          4.8509150690       -1.7296395640        0.4065905210
 H          3.9505882721       -2.3723765278        1.7919671902
 O          2.0052439317       -0.8872879016        1.7062402591
 C          1.0695433562        0.1233258511        1.8441447305
 O          0.2521632695       -0.0585518300        2.7694816669
 H         -1.6219257248        0.4428363275        0.4641290665
 C         -1.5844552836        1.1953175414       -0.3105057331
 C         -0.7601691438        2.3045317875       -0.1292446042
 C         -0.7112572045        3.2496152154       -1.1450123784
 C         -1.4787481283        3.0903429141       -2.2878474748
 C         -2.3036987085        1.9947200636       -2.4522406768
 C         -2.3482857490        1.0286269819       -1.4519390709
 N         -3.1250619235       -0.1268919885       -1.6028300053
 S         -3.7421617634       -0.9479336100       -0.2883752306
 O         -4.7465272521       -1.8199708303       -0.8611686769
 O         -4.2094774849       -0.0444436626        0.7375256490
 C         -2.3946861759       -1.9433916829        0.3113967500
 C         -2.1816659420       -2.0431100879        1.6711851640
 C         -1.1628622863       -2.8597871069        2.1337524959
 C         -0.3817900958       -3.5621533142        1.2307979706
 C         -0.6066388609       -3.4510139868       -0.1331586597
 C         -1.6238592468       -2.6357851347       -0.6013070223
 H         -1.8271765574       -2.5252686970       -1.6536714918
 H          0.0076370027       -3.9963621140       -0.8319471982
 H          0.4078213961       -4.1995232944        1.5976952225
 H         -0.9760975238       -2.9308455816        3.1928761418
 H         -2.8004308375       -1.4684089571        2.3421870406
 H         -3.7396681323       -0.1433879791       -2.4025667419
 H         -2.8968999082        1.8768817230       -3.3461017578
 H         -1.4272416427        3.8369447521       -3.0660906902
 H         -0.0599820036        4.1015168538       -1.0768335806
 C          0.0475186595        2.2789072481        1.1461575322
 H         -0.6241202197        1.8721455875        1.9197434024
 C          0.6220032606        3.5485907367        1.7552639383
 C          1.4355924601        4.5856713142        1.0450043058
 C          0.0599746484        4.9216802549        1.5386684646
 H         -0.0262016174        5.5734723936        2.3956651602
 H         -0.7385350291        5.0366036955        0.8234640182
 H          2.2808825901        4.9994614460        1.5769652881
 H          1.6205578484        4.4574210081       -0.0081957441
 H          0.9477733363        3.3303790277        2.7707136984
 O          2.1390610685        2.2348610298       -0.9017299429
