  62
        -98.93886044
 C         -1.7934219397       -0.7338749315        0.3684597044
 C         -2.0246034704        0.6066557315       -0.0367224974
 C         -3.3529208820        0.9060653054       -0.5861415357
 C         -4.2603142450       -0.0826311191       -0.6802556285
 C         -5.6682204663        0.0862383093       -1.1718847323
 C         -6.6267508591        0.4025425662       -0.0153764108
 C         -6.1417643529        1.5284101467        0.8978311344
 H         -5.2382536022        1.2012854388        1.4173588924
 H         -6.9106690771        1.6854448662        1.6573124739
 C         -5.8575043498        2.8532939146        0.1764381468
 H         -6.2906847163        3.6693321132        0.7586584128
 H         -6.3456767449        2.8568736610       -0.7987882695
 C         -4.3717775746        3.1729558322       -0.0003239347
 H         -3.8597716949        3.0803179783        0.9607418233
 H         -4.2834522930        4.2151766139       -0.3187200099
 C         -3.6219491191        2.3168222234       -1.0290574328
 H         -2.6402397279        2.7724269163       -1.1903020276
 H         -4.1621099322        2.3252901938       -1.9782896340
 H         -6.7493522097       -0.4994177063        0.5886083674
 H         -7.5993337889        0.6650973702       -0.4354406505
 H         -5.9804783238       -0.8455381574       -1.6464903861
 H         -5.6955532606        0.8853867354       -1.9101907637
 O         -4.0062409665       -1.3537942737       -0.2855298812
 C         -2.7749967386       -1.7189053136        0.2494533154
 O         -2.7089622006       -2.9200021181        0.5658533531
 O         -1.1574332718        1.5160707954        0.0691279805
 C         -0.4197738096       -1.0420285251        0.9374077408
 C          0.5051051913       -1.5605023836       -0.1345708713
 C          0.1651157771       -2.6567838162       -0.9220331837
 C          1.0346348079       -3.1134729553       -1.8953060827
 C          2.2474304580       -2.4826199237       -2.1119745172
 C          2.5937554480       -1.3819425419       -1.3376476261
 C          1.7254547735       -0.9369745784       -0.3497712034
 H          1.9940441935       -0.0765468776        0.2422691822
 N          3.8250131386       -0.7358488695       -1.5167159283
 S          3.9208840196        0.9371240040       -1.4384626065
 O          2.7199741852        1.5628482405       -1.9377647135
 O          5.1464591856        1.2528928597       -2.1415540586
 C          4.1496087117        1.2772796222        0.2933819976
 C          3.2462677073        2.0752134390        0.9672272856
 C          3.4499021637        2.3225999011        2.3162145385
 C          4.5465021526        1.7723718641        2.9620724648
 C          5.4462877524        0.9761085751        2.2691908847
 C          5.2490947614        0.7250838353        0.9210642034
 H          5.9263712989        0.1171122538        0.3449579839
 H          6.2973441862        0.5503421159        2.7757439412
 H          4.6986640216        1.9657922281        4.0122131844
 H          2.7477980759        2.9391743145        2.8546161993
 H          2.3971826008        2.4736672093        0.4322441031
 H          4.3877395371       -1.1029950052       -2.2705568339
 H          2.9206555973       -2.8372182168       -2.8778347247
 H          0.7617647335       -3.9669853589       -2.4977724285
 H         -0.7833002016       -3.1459789667       -0.7602563172
 H         -0.0296735635       -0.0618586600        1.2553446483
 C         -0.4621394212       -1.9308626108        2.1734463783
 C          0.0804744364       -3.3246100419        2.2183841582
 C          0.8054970057       -2.2198440717        2.9226039620
 H          0.7889400309       -2.1902349427        4.0013412793
 H          1.7277092568       -1.8698121551        2.4827837782
 H         -0.4623073096       -4.0502477931        2.8046408755
 H          0.5194082626       -3.7330119829        1.3223159316
 H         -1.3489826194       -1.7454244113        2.7710989069
