  62
        -98.92968226
 C         -2.2955609777       -0.7000907291        0.8329054902
 C         -3.4609406297       -1.0788956490        0.1237658479
 C         -4.6204461561       -0.1701727889        0.2400027114
 C         -4.5145857483        0.9444774620        0.9816942791
 C         -5.5490715233        2.0185361202        1.1754587193
 C         -5.3480009317        3.1562993895        0.1601673372
 C         -6.0478395209        2.9519006267       -1.1830552866
 H         -7.1254691262        3.0634320755       -1.0459848975
 H         -5.7170424968        3.7542730733       -1.8465137853
 C         -5.7781483437        1.6076718461       -1.8643416825
 H         -6.0009531491        1.7209537387       -2.9270923903
 H         -4.7183815562        1.3595680483       -1.7812398429
 C         -6.6305972978        0.4624256538       -1.2979831020
 H         -7.1245141044       -0.0600017506       -2.1198008452
 H         -7.4228569545        0.8823081570       -0.6784050500
 C         -5.8587872671       -0.5992393183       -0.4994954049
 H         -5.5152460825       -1.3864528971       -1.1778268622
 H         -6.5409281121       -1.0761523682        0.2120446011
 H         -4.2729335247        3.2768007378        0.0021510207
 H         -5.7192891874        4.0855425104        0.5972582601
 H         -6.5508901825        1.6046639200        1.1094790862
 H         -5.3976130928        2.4181430368        2.1803647187
 O         -3.3705925806        1.2766080668        1.6435973587
 C         -2.2486296718        0.4733635735        1.5894287893
 O         -1.2828808830        0.8983821744        2.2577118833
 O         -3.5519471294       -2.1151763175       -0.5822815279
 C         -1.0189403638       -1.5245808152        0.8363752981
 C         -0.1299268697       -1.1621181746       -0.3260843792
 C         -0.6229018593       -1.1094207905       -1.6263769372
 C          0.2118750930       -0.7758821540       -2.6769189972
 C          1.5468226487       -0.4892077072       -2.4533122273
 C          2.0520819320       -0.5469502326       -1.1592299655
 C          1.2107477725       -0.8805017828       -0.1064376565
 H          1.6079934333       -0.8994771715        0.8973122122
 N          3.4170279195       -0.3119366452       -0.9207856025
 S          3.9010137775        0.4317109902        0.5152572441
 O          3.8252951260       -0.5316924337        1.5843654876
 O          3.1795189571        1.6702638395        0.7046444120
 C          5.6101415150        0.7604794763        0.1279611769
 C          5.9918880836        2.0325793532       -0.2534972759
 C          7.3198585721        2.2655065181       -0.5760192794
 C          8.2372793050        1.2274671426       -0.5151236309
 C          7.8392128881       -0.0441200658       -0.1292949766
 C          6.5137739371       -0.2833659567        0.1962741809
 H          6.1602796604       -1.2513246958        0.5108035876
 H          8.5559949917       -0.8478288203       -0.0800275098
 H          9.2696999587        1.4113890310       -0.7670824329
 H          7.6329291164        3.2537439232       -0.8721666476
 H          5.2449332359        2.8098503661       -0.2784448055
 H          3.8821751188        0.1053299303       -1.7160728438
 H          2.1953406871       -0.2262076320       -3.2751486583
 H         -0.1822672954       -0.7352459029       -3.6812379459
 H         -1.6624440185       -1.3392781388       -1.8028845417
 H         -0.4879970450       -1.2258674194        1.7554620066
 C         -1.2770376074       -3.0232207995        0.9340894064
 C         -0.9920321118       -3.9876783610       -0.1736272956
 C         -0.1178821632       -3.9696774436        1.0417057652
 H         -0.1817942658       -4.7880306996        1.7428409067
 H          0.8725716803       -3.5496030943        0.9426075423
 H         -1.6805313445       -4.8076337212       -0.3083035691
 H         -0.5904019385       -3.6006467827       -1.0964387194
 H         -2.1421127927       -3.2428732392        1.5515973904
