  62
        -98.94850291
 C          1.2394704309        1.5188938942        0.5004501549
 C          2.1625691588        1.1870866863       -0.5202060033
 C          3.2031055468        0.2174156948       -0.1506404454
 C          3.2260436594       -0.2862970886        1.0964915199
 C          4.2029371942       -1.3132078704        1.5898525601
 C          3.6556030683       -2.7362647092        1.4144921406
 C          3.1041565990       -3.0255486070        0.0178878278
 H          2.1959426563       -2.4376972732       -0.1401730616
 H          2.7966819368       -4.0741147695        0.0043900495
 C          4.0959989447       -2.7702742734       -1.1256978619
 H          4.0328508332       -3.6026039983       -1.8300146916
 H          5.1142383031       -2.7526689413       -0.7344082822
 C          3.8365795057       -1.4920419048       -1.9255182077
 H          2.7839263759       -1.4552479358       -2.2195932127
 H          4.4322141087       -1.5378630328       -2.8414007528
 C          4.1854412340       -0.1773836562       -1.2162400173
 H          4.1548965028        0.6217615343       -1.9627450224
 H          5.1980762611       -0.2333469625       -0.8116954140
 H          2.8464674502       -2.8899279270        2.1325158255
 H          4.4551750168       -3.4433299781        1.6452331862
 H          5.1403263204       -1.2044336129        1.0477529343
 H          4.3839585026       -1.1332106541        2.6512021260
 O          2.3265390686        0.0609334303        2.0518362744
 C          1.2921154425        0.9374702292        1.7661064166
 O          0.4956900773        1.1196299069        2.7108450076
 H         -0.4183376662       -0.1244743561       -0.2362944091
 C         -0.9590337933        0.4990675591       -0.9303777655
 C         -0.7932215290        1.8753362641       -0.8844055673
 C         -1.4755987951        2.6529219859       -1.8122966136
 C         -2.2872462648        2.0553480868       -2.7613296766
 C         -2.4538482520        0.6822783394       -2.7971015570
 C         -1.7779216123       -0.1032788593       -1.8707947621
 N         -1.9020350256       -1.5003959410       -1.8626893612
 S         -1.8620514285       -2.3279659264       -0.4106027451
 O         -0.5219955572       -2.3620713164        0.1180644085
 O         -2.4498845606       -3.6137815667       -0.7217199953
 C         -2.9585487438       -1.4122312502        0.6580036036
 C         -4.3095707518       -1.4720060922        0.3712231083
 C         -5.1951474354       -0.7357436813        1.1396001778
 C         -4.7171706978        0.0526325012        2.1760252814
 C         -3.3607788998        0.0977956340        2.4551378674
 C         -2.4695004720       -0.6410428497        1.6917855214
 H         -1.4101964268       -0.6144817935        1.8956721832
 H         -2.9770049158        0.7068155588        3.2583402044
 H         -5.4041133161        0.6324755263        2.7719873796
 H         -6.2514277327       -0.7750126336        0.9279728737
 H         -4.6421024912       -2.1055163087       -0.4349794837
 H         -2.5884992735       -1.8774244975       -2.4987718663
 H         -3.0883793969        0.2211989425       -3.5380686970
 H         -2.8042565410        2.6697338983       -3.4825972258
 H         -1.3648375780        3.7248857550       -1.7973143994
 C          0.0853914626        2.4560070070        0.1993774685
 H         -0.5139358278        2.5060115414        1.1215151318
 C          0.5938403515        3.8458653469       -0.1260893214
 C         -0.2016584446        5.0551499375        0.2616803530
 C          1.0618934954        4.7229839904        0.9950197377
 H          1.9323747022        5.3417689394        0.8373828944
 H          0.9847734929        4.3267969780        1.9974489487
 H         -1.1381433451        4.8964212911        0.7748126944
 H         -0.1973438393        5.9085410323       -0.3996195695
 H          1.1556974242        3.8748561059       -1.0522959188
 O          2.1195586093        1.6713999416       -1.6814795889
