  62
        -98.93752407
 C         -1.8606472713        0.5026152976        0.5332285892
 C         -2.9350946898        1.2822738473        0.0424155645
 C         -4.2750719842        0.6890492478        0.1608106749
 C         -4.4040425545       -0.5280339579        0.7199019931
 C         -5.6882327235       -1.2981396855        0.8431640953
 C         -6.0586241231       -1.9270578963       -0.5152693197
 C         -7.3406648861       -1.3732647024       -1.1374181015
 H         -7.3819190414       -1.7265924116       -2.1699458056
 H         -8.2003829923       -1.7933943250       -0.6111807995
 C         -7.4838472461        0.1517517969       -1.1256365509
 H         -8.2884790822        0.4005802408       -1.8208272121
 H         -7.8125576823        0.4817964957       -0.1390808271
 C         -6.2314312085        0.9465523361       -1.5171303019
 H         -6.5461826914        1.7986975196       -2.1229315531
 H         -5.5709888976        0.3416581637       -2.1387178726
 C         -5.4341729796        1.5136251446       -0.3275561552
 H         -6.1143207092        1.7157481631        0.5044677213
 H         -4.9906287139        2.4674890034       -0.6279326884
 H         -6.1739999687       -3.0055875729       -0.3973881139
 H         -5.2231767494       -1.7748263549       -1.2018458858
 H         -5.5296407065       -2.0753904139        1.5909940113
 H         -6.4809098064       -0.6382324267        1.1888098953
 O         -3.3469623881       -1.2470976836        1.1792386812
 C         -2.0506345583       -0.7577312870        1.0986350258
 O         -1.1848972447       -1.5258869997        1.5580606129
 O         -2.7794563369        2.4224408406       -0.4721239393
 C         -0.4517967623        1.0646634521        0.4422895168
 C          0.3949637186        0.1543426783       -0.4110082913
 C          0.0265107623       -0.0337875223       -1.7419753826
 C          0.7404222574       -0.8866575700       -2.5595375335
 C          1.8440576435       -1.5644220790       -2.0701698596
 C          2.2215694829       -1.3838689719       -0.7455869226
 C          1.5024138851       -0.5218900136        0.0736651657
 H          1.8063565160       -0.4187069618        1.1010316830
 N          3.3221040825       -2.0805078411       -0.2222927396
 S          4.4536060895       -1.3176983151        0.7401888652
 O          5.5656465718       -2.2412098179        0.7878838320
 O          3.8775321732       -0.9456601998        2.0062894507
 C          4.9150597863        0.1342218862       -0.1868052870
 C          5.8629648865        0.0010296719       -1.1830875718
 C          6.1866188265        1.1058269124       -1.9533450831
 C          5.5532598910        2.3175802113       -1.7212729417
 C          4.6037134899        2.4343041180       -0.7181591874
 C          4.2778208782        1.3333881002        0.0585561748
 H          3.5475024823        1.3874876757        0.8486082639
 H          4.1135466300        3.3775542203       -0.5368594012
 H          5.8026836487        3.1771897962       -2.3230985253
 H          6.9279129428        1.0192566844       -2.7313254032
 H          6.3388035459       -0.9561723539       -1.3223723602
 H          3.7733098997       -2.7001966189       -0.8790853947
 H          2.3995859634       -2.2387475886       -2.7041308054
 H          0.4392835497       -1.0257280227       -3.5868474666
 H         -0.8388287629        0.4930718424       -2.1204534158
 H         -0.5588911903        2.0259779977       -0.0809081585
 C          0.1101654285        1.3249001436        1.8228770618
 C          1.1574185362        2.3787091484        2.0181046217
 C         -0.2374703811        2.6065569194        2.5167050442
 H         -0.4179848523        2.5834634051        3.5809618675
 H         -0.8640639982        3.3056673750        1.9823205623
 H          1.9389822942        2.1993616852        2.7418771721
 H          1.4736654985        2.9326220833        1.1469316888
 H          0.1652384121        0.4310284558        2.4343155689
