  62
        -98.92928419
 C         -2.3115503559       -0.0998517218       -0.3432321121
 C         -3.3420214422        0.6908017195        0.2218841284
 C         -4.5991124494       -0.0135406738        0.5462015617
 C         -4.6995083703       -1.3349454046        0.3302671873
 C         -5.8577855346       -2.2531000831        0.6314320140
 C         -7.2676867435       -1.7522319493        0.2884489546
 C         -7.3507608990       -0.8360660586       -0.9411085850
 H         -6.4086967983       -0.8619499477       -1.4917041110
 H         -8.1286926074       -1.2096538939       -1.6096290619
 C         -7.6945691775        0.6121787444       -0.5843653126
 H         -8.0946821215        1.1070135906       -1.4726696649
 H         -8.4837535695        0.6083494126        0.1706148206
 C         -6.5263101911        1.4596229831       -0.0819397050
 H         -5.8348281899        1.6622798454       -0.9043678976
 H         -6.9256046440        2.4229560887        0.2441949443
 C         -5.7120207204        0.8485199948        1.0700371090
 H         -5.2302741926        1.6672724921        1.6110979728
 H         -6.3518751799        0.3040678451        1.7599515567
 H         -7.6883949182       -1.2311863586        1.1472966206
 H         -7.8848088256       -2.6373096790        0.1249143994
 H         -5.6470448990       -3.1665726211        0.0702083327
 H         -5.8183755743       -2.5119503339        1.6934790590
 O         -3.6724751533       -2.0627334877       -0.1959535899
 C         -2.4742200560       -1.4714289287       -0.5487352001
 O         -1.6400275431       -2.2620905113       -1.0367555952
 H          1.5840941862       -0.4351130397       -0.7926014763
 C          1.3049980718       -0.0392648878        0.1730267600
 C          0.0220907736        0.4435826163        0.3817814914
 C         -0.3169609545        0.9212705620        1.6439355745
 C          0.6151187807        0.9203041767        2.6654783122
 C          1.9031996722        0.4649373097        2.4455284352
 C          2.2494031897       -0.0204600706        1.1900472224
 N          3.5420425430       -0.5028677909        0.9328867350
 S          4.1970756215       -0.2089574523       -0.5967407588
 O          3.8725281026        1.1348496959       -1.0181871435
 O          3.7977033836       -1.2702992088       -1.4864421102
 C          5.9386226557       -0.3441346903       -0.2398662252
 C          6.5204905180       -1.5977194515       -0.2247466800
 C          7.8670149955       -1.7069115537        0.0843740303
 C          8.6045460490       -0.5679881770        0.3723183646
 C          8.0071322871        0.6834083718        0.3510434129
 C          6.6605797592        0.7999267860        0.0439680197
 H          6.1561844203        1.7521158408        0.0060950317
 H          8.5840498679        1.5670430871        0.5714404413
 H          9.6524761546       -0.6560534925        0.6117249873
 H          8.3355480698       -2.6777251195        0.0984869915
 H          5.9093360978       -2.4523803167       -0.4643684686
 H          4.1973111302       -0.2950082690        1.6739651472
 H          2.6329496743        0.4784382701        3.2407909850
 H          0.3396619098        1.2932116206        3.6405474860
 H         -1.3123837121        1.3038188754        1.8103361552
 C         -0.9618269229        0.4594029826       -0.7594551933
 H         -0.5824442308       -0.2401873556       -1.5228883285
 C         -1.0553179033        1.8290614520       -1.4198199945
 C         -0.5982107214        3.0970659691       -0.7711661237
 C          0.1883858792        2.5149758114       -1.9046907811
 H          0.1616945478        3.0111201209       -2.8634784423
 H          1.1404934494        2.0560784803       -1.6763765217
 H         -1.1855107378        3.9857013665       -0.9446305062
 H         -0.1798546684        3.0398290810        0.2211074231
 H         -1.9294870664        1.9066374102       -2.0591068062
 O         -3.2399186516        1.9192239745        0.4652757314
