  62
        -98.94490437
 C         -1.8753598599       -1.0841936899       -0.1977717414
 C         -3.0194601199       -1.1608327309        0.6418298384
 C         -4.2475662700       -0.5448801605        0.1312734289
 C         -4.2466893899        0.0301437208       -1.0846167905
 C         -5.4236678099        0.6793469213       -1.7603262599
 C         -5.6579440101        2.1371291509       -1.3410100484
 C         -6.2187906603        2.3259065293        0.0690900117
 H         -6.5393388404        3.3665377392        0.1494836928
 H         -7.1047288202        1.7023139891        0.1928773310
 C         -5.2170067104        2.0302037383        1.1942229515
 H         -4.2023692003        2.0284951088        0.7886425016
 H         -5.2602670505        2.8279838275        1.9392005923
 C         -5.4583918803        0.7113168475        1.9287514801
 H         -4.6702705804        0.5872398268        2.6758142701
 H         -6.4157553404        0.7540664268        2.4528015500
 C         -5.4522149001       -0.5268828116        1.0226892288
 H         -6.3655233300       -0.5634402411        0.4291595887
 H         -5.4098624000       -1.4156411522        1.6569932879
 H         -4.7166126302        2.6838202311       -1.4347764678
 H         -6.3656921601        2.5707662215       -2.0513132181
 H         -6.3242331099        0.0954455910       -1.5680432906
 H         -5.2176602298        0.6585004425       -2.8327073199
 O         -3.1390024398        0.0675342617       -1.8682926103
 C         -1.9272787498       -0.4608907786       -1.4443419708
 O         -1.0088855897       -0.3066912776       -2.2759984105
 O         -3.0132433000       -1.7297596021        1.7653118378
 C         -0.6002931498       -1.7122464103        0.3399724981
 C          0.3340945600       -0.6707117708        0.9076231793
 C          0.6531317598       -0.6575709021        2.2601572693
 C          1.5343323697        0.2811595074        2.7691867804
 C          2.1148977596        1.2239532684        1.9402315614
 C          1.7947806798        1.2232070797        0.5887053314
 C          0.9176695400        0.2777936302        0.0793627303
 H          0.6690834801        0.2870568112       -0.9714647897
 N          2.3933785798        2.1719155907       -0.2679972175
 S          4.0686063098        2.1103280610       -0.3275432974
 O          4.6077256696        2.7535663998        0.8443908933
 O          4.4390059498        2.6926062923       -1.5977448068
 C          4.4407164600        0.3665198710       -0.2929199992
 C          4.1642055102       -0.3779104879       -1.4223835000
 C          4.3664652503       -1.7476013979       -1.3881068914
 C          4.8300704603       -2.3473060391       -0.2271255520
 C          5.1029520701       -1.5857451502        0.8982648088
 C          4.9047593099       -0.2146946902        0.8693564302
 H          5.1041984798        0.4144095789        1.7211014509
 H          5.4638054200       -2.0557233611        1.7987619684
 H          4.9802820004       -3.4151465391       -0.2003880131
 H          4.1559916905       -2.3404120070       -2.2641276821
 H          3.8059904302        0.1222652230       -2.3083630695
 H          2.0155551999        2.1395774316       -1.2047691476
 H          2.8097035195        1.9586350081        2.3141531823
 H          1.7720871696        0.2785254964        3.8218792504
 H          0.1964032998       -1.3845071829        2.9156917285
 H         -0.9292325099       -2.3520809912        1.1696217874
 C          0.1256211804       -2.5755970291       -0.6742766127
 C          1.1171241204       -3.5865131095       -0.1849218137
 C         -0.1922072595       -4.0369271691       -0.7584412343
 H         -0.1990596893       -4.5062360981       -1.7307691548
 H         -0.9399534095       -4.4258761399       -0.0827078848
 H          2.0146360805       -3.7455064788       -0.7615371838
 H          1.2588137803       -3.6698669306        0.8817051262
 H          0.3447222104       -2.0610368881       -1.6004677722
