  62
        -98.94850682
 C         -1.2507513348       -1.5142155514        0.5019293789
 C         -2.1635927882       -1.1695206649       -0.5237265755
 C         -3.1948385008       -0.1882830381       -0.1586265590
 C         -3.2206799765        0.3118848875        1.0898573789
 C         -4.1924939419        1.3445982495        1.5811951130
 C         -3.6337148068        2.7643734486        1.4164079711
 C         -3.0704495439        3.0564868996        0.0251207364
 H         -2.7568319725        4.1033210885        0.0185364207
 H         -2.1646336932        2.4640930162       -0.1295539354
 C         -4.0554456350        2.8125092871       -1.1267978823
 H         -3.9805357443        3.6468553941       -1.8275768216
 H         -5.0768107587        2.8012097500       -0.7434563365
 C         -3.7993908187        1.5354308486       -1.9296048551
 H         -4.3861263978        1.5901684034       -2.8507505318
 H         -2.7443713321        1.4913161342       -2.2141227720
 C         -4.1656921789        0.2206128059       -1.2293970089
 H         -5.1807784947        0.2840557382       -0.8320920363
 H         -4.1370665920       -0.5752430779       -1.9794898594
 H         -2.8288237882        2.9089548323        2.1410398461
 H         -4.4299568438        3.4759609780        1.6448050477
 H         -5.1270327129        1.2453569317        1.0323515098
 H         -4.3821101510        1.1609897478        2.6404527561
 O         -2.3302612348       -0.0466290153        2.0495404092
 C         -1.3039558447       -0.9341605308        1.7681396658
 O         -0.5151158422       -1.1267795335        2.7171712224
 H          0.4229486581        0.1051288924       -0.2448466002
 C          0.9633906726       -0.5291815683       -0.9292268517
 C          0.7843446241       -1.9033852311       -0.8728451049
 C          1.4669465613       -2.6953613949       -1.7883831560
 C          2.2917081663       -2.1137060243       -2.7359788832
 C          2.4700071288       -0.7424927936       -2.7832959276
 C          1.7936396196        0.0574714339       -1.8696222342
 N          1.9278042357        1.4535058945       -1.8769969179
 S          1.8716276775        2.3057879649       -0.4403705898
 O          0.5267370804        2.3454193596        0.0753926216
 O          2.4593890785        3.5873129144       -0.7685765931
 C          2.9601860201        1.4127989684        0.6550969112
 C          2.4623384159        0.6530133585        1.6931336544
 C          3.3480917275       -0.0682917517        2.4793363649
 C          4.7078871109       -0.0171779085        2.2182540486
 C          5.1946069353        0.7595049267        1.1770515702
 C          4.3145814789        1.4781415213        0.3859380076
 H          4.6535829797        2.1025408898       -0.4246799270
 H          6.2534465964        0.8034550035        0.9795332191
 H          5.3906031465       -0.5832214243        2.8320679416
 H          2.9576043708       -0.6685368452        3.2859088194
 H          1.4005365895        0.6223835412        1.8829809863
 H          2.6222962591        1.8181815367       -2.5114866844
 H          3.1135673627       -0.2935170164       -3.5239375032
 H          2.8091408775       -2.7392156692       -3.4473204102
 H          1.3461400236       -3.7660973351       -1.7649597692
 C         -0.1086276018       -2.4679607103        0.2077095460
 H          0.4849310022       -2.5260085303        1.1330986249
 C         -0.6368033131       -3.8503417994       -0.1188975241
 C          0.1358073597       -5.0718426084        0.2767750255
 C         -1.1275003701       -4.7176420847        1.0001716645
 H         -2.0068503046       -5.3223465985        0.8371717366
 H         -1.0512357874       -4.3209686827        2.0024778572
 H          0.1222356899       -5.9261646114       -0.3832159815
 H          1.0709210299       -4.9277820247        0.7966973654
 H         -1.1921678108       -3.8718695036       -1.0492418362
 O         -2.1197318829       -1.6528640471       -1.6853962884
