  62
        -98.94087115
 C         -2.3126092402       -0.3906955793        0.2629970406
 C         -3.5485463602       -0.8957259083        0.7328272119
 C         -4.6932006402        0.0195273714        0.6412909096
 C         -4.5068467303        1.2562837202        0.1444555666
 C         -5.5955971504        2.2689988596       -0.0595245859
 C         -6.2045916504        2.1541405061       -1.4640963956
 C         -6.5929085103        0.7281461951       -1.8551591021
 H         -7.0381686503        0.7744171026       -2.8513716922
 H         -5.6875274203        0.1221005350       -1.9363104606
 C         -7.5725701402        0.0486089174       -0.8882145804
 H         -8.0636619203        0.8004219989       -0.2694669422
 H         -8.3497917802       -0.4504164441       -1.4707518492
 C         -6.9397707302       -1.0137956703        0.0122487022
 H         -6.3679479301       -1.7177375418       -0.5976162460
 H         -7.7447722701       -1.5759258492        0.4929730436
 C         -6.0241053602       -0.4856163275        1.1235991609
 H         -6.5451762002        0.2853522039        1.6946498190
 H         -5.8012912501       -1.3201770858        1.7948137330
 H         -7.0838630005        2.7990624959       -1.5125827772
 H         -5.4734437505        2.5203662644       -2.1885811165
 H         -6.3662481004        2.1232123914        0.6948985545
 H         -5.1653945105        3.2647049399        0.0599923416
 O         -3.2993217004        1.7136646993       -0.2772054746
 C         -2.1732457003        0.9042358295       -0.2351687926
 O         -1.1338490304        1.4472328385       -0.6574911139
 O         -3.6852471701       -2.0540447271        1.2109779948
 C         -1.0910354001       -1.2891382291        0.3055333728
 C          0.0073956598       -0.6554598470        1.1227534613
 C         -0.3022656402       -0.1202607240        2.3707944499
 C          0.6747520698        0.4709810780        3.1469080585
 C          1.9815154398        0.5396096970        2.6968063183
 C          2.3064264698       -0.0084497660        1.4619445696
 C          1.3221699998       -0.6073259280        0.6868442311
 H          1.5980685098       -1.0181958103       -0.2688872579
 N          3.6418248898       -0.0020718870        1.0180613396
 S          4.0114526097        0.2463887490       -0.6097134810
 O          3.5037650096        1.5250160079       -1.0566616442
 O          3.6089793098       -0.9082881329       -1.3708096082
 C          5.7911961897        0.2950726994       -0.4968881812
 C          6.4466808396        1.5114196295       -0.5048304642
 C          7.8276779096        1.5298009399       -0.3850396642
 C          8.5252995197        0.3382974203       -0.2570194413
 C          7.8534670898       -0.8752885998       -0.2518999383
 C          6.4733656998       -0.9005813502       -0.3728330282
 H          5.9094624299       -1.8185600103       -0.3825077259
 H          8.3995450099       -1.7997381195       -0.1547587860
 H          9.5996454897        0.3554346706       -0.1631240513
 H          8.3528000796        2.4713756499       -0.3920822666
 H          5.8634543096        2.4117729192       -0.6142330564
 H          4.2271757597        0.5914765645        1.5915742581
 H          2.7436879197        1.0102601786        3.2993891171
 H          0.4170645497        0.8894442704        4.1084057574
 H         -1.3252919802       -0.1666012332        2.7193895401
 H         -1.4187173101       -2.2037109179        0.8234057751
 C         -0.6611685401       -1.6552490326       -1.0995913363
 C          0.0146366400       -2.9653763032       -1.3682058030
 C         -1.3936061300       -2.7405554344       -1.8279958036
 H         -1.5810158101       -2.6171203170       -2.8841734039
 H         -2.1904277700       -3.2409448332       -1.2970386923
 H          0.8038303200       -2.9925013549       -2.1047551230
 H          0.1734399100       -3.6250297211       -0.5285202214
 H         -0.3444785602       -0.7916708440       -1.6760429784
