  62
        -98.93876662
 C         -1.9611240157       -1.5478362703       -0.0376537762
 C         -1.7446745805       -0.2650370418       -0.5946725856
 C         -2.9175837993        0.6267557817       -0.6371648039
 C         -4.1035525754        0.1821352438       -0.1872880934
 C         -5.4321862652        0.8962721971       -0.1875700427
 C         -5.4439433031        2.3661953408        0.2549436163
 C         -4.3951021200        2.7334569850        1.3146705811
 H         -4.8885207192        3.2588445653        2.1346397013
 H         -3.9487104986        1.8285438852        1.7306145158
 C         -3.2925966304        3.6439774368        0.7695531011
 H         -3.7537195689        4.4116433274        0.1441173534
 H         -2.8120368195        4.1526527006        1.6087765609
 C         -2.1905451388        2.9450045112       -0.0266020045
 H         -1.5630570226        2.3525148115        0.6447146880
 H         -1.5557377877        3.7204032928       -0.4603996897
 C         -2.6676604944        2.0146079900       -1.1532480684
 H         -3.5411704171        2.4203815998       -1.6580094526
 H         -1.8536914364        1.9211649160       -1.8770357958
 H         -5.3094130928        3.0091182814       -0.6138314969
 H         -6.4426138739        2.5707098824        0.6446390755
 H         -5.8588182547        0.8211287111       -1.1920132192
 H         -6.0703219204        0.3088280695        0.4769502778
 O         -4.2663473268       -1.0695706212        0.3297145344
 C         -3.2076855536       -1.9548166044        0.4321280538
 O         -3.4985378353       -3.0517407675        0.9520183273
 H          1.8327820648       -2.2777810300       -0.7121453578
 C          1.6266978967       -1.8297139998        0.2471815280
 C          0.3482202028       -1.8832303732        0.7774923332
 C          0.1201402792       -1.2971782148        2.0200459044
 C          1.1401806258       -0.6639379816        2.7030317206
 C          2.4131583986       -0.6000702970        2.1629068951
 C          2.6522165485       -1.1854718024        0.9280097979
 N          3.9428037199       -1.1216004530        0.3674288586
 S          4.6384577313        0.3946185779        0.2062600742
 O          5.7037147303        0.2171453617       -0.7551860704
 O          5.0329412969        0.8767024808        1.5060594260
 C          3.3541758398        1.4264617557       -0.4725536955
 C          3.0870073648        1.3297354426       -1.8233430246
 C          2.0576680756        2.0847568523       -2.3586781915
 C          1.3118048287        2.9131416461       -1.5360254877
 C          1.5903431891        2.9971697478       -0.1817480880
 C          2.6198793671        2.2453624019        0.3598264165
 H          2.8688820252        2.2853032177        1.4076645818
 H          1.0049277213        3.6403784674        0.4557279701
 H          0.5069191823        3.4959090737       -1.9554511885
 H          1.8339686222        2.0195982258       -3.4114415813
 H          3.6950470237        0.6799922020       -2.4326204571
 H          4.0231164168       -1.6269099621       -0.5037614783
 H          3.2198860855       -0.1018662018        2.6756373660
 H          0.9443637643       -0.2127670865        3.6642904879
 H         -0.8767698937       -1.3376647784        2.4388935320
 C         -0.8086471191       -2.5312295497        0.0582681088
 H         -1.1706277520       -3.3697472109        0.6705966981
 C         -0.4608323883       -3.0513732784       -1.3211683498
 C          0.1687245080       -4.4017430893       -1.4833171577
 C         -1.2582898763       -4.1860732210       -1.8871236172
 H         -1.5014576638       -4.1720259167       -2.9390217424
 H         -2.0381870583       -4.6014750547       -1.2655520113
 H          0.9037301942       -4.5409861518       -2.2620404626
 H          0.3608730801       -4.9747724503       -0.5887833308
 H         -0.1664878551       -2.2609977801       -2.0026110556
 O         -0.6343033410        0.1155649152       -1.0450165648
