  62
        -98.94159244
 C         -1.1050542574       -1.9412474980       -0.1684560646
 C         -1.3244858036       -0.7631266271       -0.9245805151
 C         -2.6661859593       -0.1678722688       -0.8036880054
 C         -3.5366692520       -0.6647427918        0.0930521553
 C         -4.8942190305       -0.0949427750        0.3828701578
 C         -4.8260215933        0.9758946506        1.4810957377
 C         -3.7543685721        2.0394388455        1.2412824624
 H         -3.8220644954        2.7586960244        2.0598355178
 H         -2.7685441120        1.5729841369        1.2986640018
 C         -3.8843543467        2.7735372578       -0.1000252016
 H         -3.7619615946        3.8447744147        0.0695459857
 H         -4.8840417325        2.6241939453       -0.5095619843
 C         -2.8428872502        2.3643250227       -1.1420950826
 H         -1.8427984145        2.4302292909       -0.7098494158
 H         -2.8901989782        3.0756758170       -1.9708158547
 C         -3.0074680031        0.9615022135       -1.7359860783
 H         -4.0224728514        0.8383054476       -2.1208484747
 H         -2.3100726459        0.8778147468       -2.5748916521
 H         -5.8049740282        1.4528553059        1.5562763679
 H         -4.6148464186        0.4820354393        2.4323288682
 H         -5.3051144116        0.3321382658       -0.5300378577
 H         -5.5428870143       -0.9062298475        0.7174257893
 O         -3.2485660493       -1.7284162632        0.8853313880
 C         -2.0603077736       -2.4198896173        0.7347231412
 O         -1.9663990848       -3.4335167897        1.4561595010
 H          1.4597091938       -0.4225309997       -0.3908785287
 C          1.8567361655       -1.0788647536        0.3680110801
 C          1.2838910054       -2.3285895113        0.5657517415
 C          1.8024141216       -3.1600416099        1.5518046199
 C          2.8853173415       -2.7589449851        2.3129821824
 C          3.4743286832       -1.5278997381        2.0953732193
 C          2.9549932530       -0.6823708821        1.1188373348
 N          3.5276391982        0.5769166011        0.9251066761
 S          3.2965332144        1.5768928084       -0.3796573087
 O          3.2057919337        0.8482610327       -1.6211783453
 O          4.3945077733        2.5195339137       -0.2919679093
 C          1.8016055710        2.4826305528       -0.0316185367
 C          1.4253833599        3.4398623133       -0.9534944950
 C          0.3461124591        4.2610668980       -0.6727218524
 C         -0.3389777944        4.1122647164        0.5238032642
 C          0.0410801544        3.1380398550        1.4327090402
 C          1.1234482064        2.3158054105        1.1578818754
 H          1.4347063017        1.5533800594        1.8532185567
 H         -0.5002004664        3.0151118845        2.3575095522
 H         -1.1765133408        4.7541533611        0.7463639005
 H          0.0426539199        5.0117652047       -1.3845485055
 H          1.9883675413        3.5241366469       -1.8694605074
 H          4.3713471287        0.7773342429        1.4376125639
 H          4.3282379383       -1.2158470082        2.6768434635
 H          3.2797426151       -3.4134304208        3.0752393243
 H          1.3436700849       -4.1227543246        1.7232192094
 C          0.1401262026       -2.8044843686       -0.2968043453
 H         -0.1587891559       -3.7952792896        0.0734534625
 C          0.6076219952       -2.9586331253       -1.7320029631
 C          1.3754785660       -4.1857448311       -2.1163549447
 C         -0.0298000636       -3.9968769515       -2.6027817952
 H         -0.1922099908       -3.7659616968       -3.6448772960
 H         -0.8067987128       -4.6069918448       -2.1647139859
 H          1.5504354950       -4.9283577152       -1.3523792892
 H          2.1837242367       -4.0842399764       -2.8243977386
 H          0.8911046753       -2.0232380783       -2.1971299914
 O         -0.4713459280       -0.2217463519       -1.6769101139
