  62
        -98.93928629
 C         -2.1707952381       -0.7344720016        0.5289549896
 C         -1.9233283436        0.0318854598       -0.6330448470
 C         -1.8378991201        1.4937352830       -0.4562966082
 C         -2.0248608782        2.0098320932        0.7723372836
 C         -2.0288641027        3.4622696567        1.1659030402
 C         -3.3226512394        4.1877376361        0.7505823073
 C         -3.8758122294        3.8004709228       -0.6195046139
 H         -4.0071927870        2.7174850832       -0.6589231473
 H         -4.8668052733        4.2514394616       -0.7172891058
 C         -3.0386419822        4.2531874473       -1.8133435134
 H         -3.5507562711        3.9184407471       -2.7188698208
 H         -3.0063645375        5.3450733001       -1.8323355561
 C         -1.6015951245        3.7332104136       -1.8544654208
 H         -0.9888940489        4.2367623158       -1.1114342817
 H         -1.1851429646        3.9974004881       -2.8311603897
 C         -1.4563305169        2.2194736389       -1.7224953358
 H         -2.0221000125        1.7328294974       -2.5250336201
 H         -0.4056045219        1.9509498849       -1.8966635344
 H         -4.0889065945        3.9516161389        1.4925545466
 H         -3.1417799428        5.2631682483        0.7822124062
 H         -1.9439411913        3.4945747703        2.2544060864
 H         -1.1505809385        3.9511957466        0.7533323258
 O         -2.3026212719        1.2335238261        1.8598805021
 C         -2.3387776689       -0.1448295741        1.7786286748
 O         -2.5361751797       -0.7251886677        2.8678034886
 H          0.2627938135       -1.2241347963        0.8995242957
 C          0.3093337459       -2.0352792820        0.1865809663
 C         -0.8544303073       -2.7046991352       -0.1695345078
 C         -0.7634755262       -3.7560500670       -1.0727289106
 C          0.4575672891       -4.0956819033       -1.6295670745
 C          1.6034528627       -3.3900526004       -1.3131168308
 C          1.5259654001       -2.3496551408       -0.3936268781
 N          2.6725932177       -1.6195485432       -0.0276256218
 S          2.4991371943        0.0327984327        0.2805514208
 O          1.9936751866        0.2088860471        1.6203894377
 O          1.7544565297        0.6746189780       -0.7788113460
 C          4.2109782025        0.5318911960        0.2236406318
 C          4.7022442899        1.1710992190       -0.8985474612
 C          6.0430592699        1.5214762261       -0.9375624727
 C          6.8656114635        1.2249372739        0.1386166385
 C          6.3578328090        0.5832925185        1.2588275317
 C          5.0182142170        0.2319530564        1.3049005916
 H          4.5756135704       -0.2588503816        2.1559850283
 H          6.9994287340        0.3563141882        2.0948313010
 H          7.9085182879        1.4976761557        0.1054108542
 H          6.4392880197        2.0230711684       -1.8056431114
 H          4.0229084846        1.3855946897       -1.7079612939
 H          3.4505004372       -1.7869140852       -0.6523172283
 H          2.5488671211       -3.6374924125       -1.7715510977
 H          0.5133039889       -4.9095138020       -2.3365812022
 H         -1.6512183298       -4.2997101123       -1.3521253216
 C         -2.1569603621       -2.2495513801        0.4457161779
 H         -2.1976828834       -2.6133289678        1.4837161499
 C         -3.3776289523       -2.7525858703       -0.2978247161
 C         -3.9900165884       -4.0746352188        0.0529036099
 C         -4.6904220871       -2.8027426285        0.4224017039
 H         -5.5849902560       -2.5278519207       -0.1158388819
 H         -4.6942828232       -2.4999941731        1.4596825633
 H         -4.4092422220       -4.6751144242       -0.7403316516
 H         -3.5291132217       -4.6450742588        0.8451086713
 H         -3.3857709310       -2.4393392696       -1.3356537203
 O         -1.7825610836       -0.4809241661       -1.7753024264
