  62
        -98.93906175
 C         -2.4687480108       -1.0390219300        0.3694466204
 C         -2.6077940909        0.1672253599        1.1063968004
 C         -3.8710185609        0.8972964498        0.9428179206
 C         -4.8216304110        0.3874269198        0.1390143206
 C         -6.1428798410        1.0367624297       -0.1522542692
 C         -6.0590667912        1.9387442998       -1.3912902192
 C         -4.8740915813        2.9042630599       -1.3717453092
 H         -3.9452942712        2.3316580100       -1.4296275093
 H         -4.9336219614        3.5115260100       -2.2775201792
 C         -4.8248179913        3.8230140698       -0.1429534492
 H         -4.6002819514        4.8390925099       -0.4739930391
 H         -5.8018163712        3.8480618297        0.3409000509
 C         -3.7594834612        3.4466126099        0.8888490807
 H         -3.6623648312        4.2753427798        1.5954949508
 H         -2.7924030112        3.3268252200        0.3928980407
 C         -4.0400955610        2.1799321498        1.7074292707
 H         -3.3098378809        2.1417466498        2.5212580706
 H         -5.0390608010        2.2384541297        2.1448501108
 H         -6.9895859113        2.5036024497       -1.4704605591
 H         -5.9689913612        1.3044713099       -2.2759827792
 H         -6.4531825710        1.6182597996        0.7136798508
 H         -6.8779526110        0.2511155197       -0.3343427092
 O         -4.6619473709       -0.7734908201       -0.5405214595
 C         -3.4882149909       -1.5100710800       -0.4591606796
 O         -3.5053875308       -2.5377766000       -1.1642594297
 O         -1.7144555409        0.6077490600        1.8811659104
 C         -1.1676201707       -1.7991910499        0.5558706102
 C         -0.1764428509       -1.5489274597       -0.5565297898
 C         -0.4902973609       -1.8067220997       -1.8866536698
 C          0.4488498890       -1.5918206295       -2.8787545999
 C          1.7135478790       -1.1264235795       -2.5662482800
 C          2.0427812890       -0.8788618495       -1.2379976700
 C          1.0946175191       -1.0862389897       -0.2457952999
 H          1.3528006392       -0.8692529397        0.7796980701
 N          3.3427464990       -0.4676535894       -0.8992645700
 S          3.6141557090        0.5173891305        0.4418521600
 O          3.4467959092       -0.2676402496        1.6387465100
 O          2.8278270989        1.7272782705        0.3448558601
 C          5.3443506590        0.8762903207        0.2038217199
 C          5.7335556389        2.1142537807       -0.2703641001
 C          7.0830444988        2.3614895309       -0.4701731101
 C          8.0143126389        1.3712170109       -0.1968079203
 C          7.6083043391        0.1332609809        0.2797423697
 C          6.2614310591       -0.1195718893        0.4838180798
 H          5.9000035792       -1.0618682293        0.8611282797
 H          8.3354425191       -0.6334027591        0.4935063096
 H          9.0634825189        1.5661074710       -0.3534809603
 H          7.4018730987        3.3238911909       -0.8368644401
 H          4.9745377288        2.8553978107       -0.4630858400
 H          3.8688232989       -0.1430816493       -1.6994852901
 H          2.4440900089       -0.9615939193       -3.3436620600
 H          0.1917639689       -1.7882625095       -3.9088240099
 H         -1.4748909609       -2.1727868098       -2.1332255698
 H         -0.7303289307       -1.3916549199        1.4784901502
 C         -1.3599719406       -3.2931962499        0.7406156201
 C         -0.2887583605       -4.0792008999        1.4323938700
 C         -1.6016793905       -3.8384417800        2.1142599501
 H         -2.2868343004       -4.6652063301        2.2261977601
 H         -1.6293446705       -3.1339858801        2.9332179702
 H         -0.0692872504       -5.0738800198        1.0762708599
 H          0.5754533795       -3.5384268298        1.7894461700
 H         -1.8816148706       -3.7631756099       -0.0828078199
