  62
        -98.94342397
 C         -1.4358496410       -0.9158445097       -0.0122959587
 C         -1.8985239907        0.1952678413        0.7327463500
 C         -2.9045382906        1.0379334307        0.0722385990
 C         -3.2929599108        0.7377228693       -1.1807584405
 C         -4.3433319507        1.4819459985       -1.9522781813
 C         -5.7338796808        0.8705197391       -1.7308214104
 C         -6.0810518007        0.6404941910       -0.2599227401
 H         -7.0947426708        0.2355715113       -0.2252759495
 H         -5.4157411208       -0.1239361786        0.1478711508
 C         -6.0032157903        1.8991826421        0.6153980983
 H         -6.8865331702        1.9346804331        1.2565326884
 H         -6.0245014502        2.7899204813       -0.0136621628
 C         -4.7823746802        1.9569399930        1.5353073381
 H         -4.9375757600        2.7651504039        2.2549259671
 H         -4.7066417903        1.0250293436        2.1010437293
 C         -3.4372629202        2.2124891418        0.8439222776
 H         -3.5151233301        3.0930667710        0.2027485766
 H         -2.6976469601        2.4181423926        1.6232984073
 H         -5.7750017511       -0.0914521615       -2.2470348192
 H         -6.4764821107        1.5302856387       -2.1833679812
 H         -4.3415053204        2.5262411589       -1.6453993926
 H         -4.0958729608        1.4246204572       -3.0137666713
 O         -2.7960830811       -0.3147750917       -1.8800480893
 C         -1.8590273212       -1.1710461412       -1.3165593283
 O         -1.4871655815       -2.0919097122       -2.0676021872
 H          0.7067567392        0.2818264691       -0.5834255104
 C          1.3252565190       -0.6006483211       -0.6958938694
 C          0.8914772788       -1.8050775704       -0.1571629079
 C          1.7089905985       -2.9194867007       -0.3009046966
 C          2.9180696885       -2.8274657618       -0.9696415768
 C          3.3424442387       -1.6256272226       -1.5070388984
 C          2.5316308589       -0.5080638422       -1.3710879597
 N          2.9806536191        0.7380280670       -1.8781659913
 S          4.1514913094        1.4475932080       -0.9047530623
 O          4.2563392897        2.8212562374       -1.3416456140
 O          5.3524489592        0.6570034476       -0.9816396214
 C          3.4547834196        1.3588532002        0.7341919979
 C          3.6859945994        0.2354873711        1.5021208393
 C          3.0361071995        0.1138844627        2.7197040395
 C          2.1681169898        1.1082614034        3.1432143984
 C          1.9504517099        2.2326294525        2.3623369770
 C          2.5929943498        2.3576239809        1.1415479968
 H          2.4469051499        3.2140561101        0.5019706057
 H          1.2704446001        3.0004999731        2.6945606161
 H          1.6500683599        1.0059599047        4.0835501386
 H          3.2009664194       -0.7603101466        3.3287305306
 H          4.3638825392       -0.5175541695        1.1347042501
 H          2.2262940093        1.4000155071       -2.0005665020
 H          4.2889028586       -1.5295477134       -2.0134541786
 H          3.5393733483       -3.7039599921       -1.0721586858
 H          1.3990366084       -3.8644531301        0.1142501646
 C         -0.4049140711       -1.8334153591        0.6147733423
 H         -0.2054621709       -1.4058410679        1.6098371218
 C         -0.9685734614       -3.2290391888        0.7881593141
 C         -0.5564815015       -4.0772861574        1.9531681651
 C         -1.9312795613       -3.4837882872        1.9081232145
 H         -2.7728627615       -4.1355600572        1.7273181454
 H         -2.1538277811       -2.6570766063        2.5670043035
 H          0.1503634287       -3.6583264867        2.6530341845
 H         -0.4555480917       -5.1419576476        1.8050215064
 H         -1.1639100416       -3.7175974799       -0.1598372353
 O         -1.4833220705        0.4721790927        1.8893169996
