  62
        -98.94111429
 C         -2.0803804744       -0.7710557062       -0.4424374563
 C         -3.2163818657       -1.2883046903        0.2339540950
 C         -4.4766108083       -0.5652197566        0.0355643201
 C         -4.4999110027        0.5296664535       -0.7451687921
 C         -5.7097625061        1.3657116090       -1.0630995207
 C         -6.0361789088        2.4208033676        0.0026829881
 C         -6.6178046950        1.8709106064        1.3057517331
 H         -7.0000481336        2.7238552150        1.8700571433
 H         -7.4662438624        1.2243067835        1.0793514101
 C         -5.6088922848        1.1133462027        2.1802982306
 H         -4.5934776524        1.3596717209        1.8608933742
 H         -5.7060783320        1.4432124482        3.2171366238
 C         -5.7767352079       -0.4061378461        2.1708237762
 H         -6.7394759693       -0.6711154278        2.6134207385
 H         -4.9894703053       -0.8416696899        2.7912940987
 C         -5.6879164205       -1.0431954332        0.7779004588
 H         -5.5982153298       -2.1252972815        0.9012405574
 H         -6.5920606870       -0.8297252695        0.2080554459
 H         -6.7639045601        3.1093762087       -0.4330532043
 H         -5.1292584263        2.9901953848        0.2195918635
 H         -6.5741940994        0.7180277122       -1.2126637252
 H         -5.4940488926        1.8806639882       -2.0018426369
 O         -3.3895737303        1.0037181366       -1.3665420111
 C         -2.1504681680        0.3875326357       -1.2184074717
 O         -1.2334215496        0.9668701003       -1.8286121528
 O         -3.1776199105       -2.3096013811        0.9698179609
 C         -0.7607111505       -1.4929081810       -0.2291508941
 C          0.3063551434       -0.5088145133        0.1743089640
 C          0.2959224000        0.0081938523        1.4664969214
 C          1.2393704408        0.9362153741        1.8653151081
 C          2.2131536514        1.3691370490        0.9829534693
 C          2.2314670801        0.8595073675       -0.3086072227
 C          1.2917525618       -0.0841777210       -0.7027441351
 H          1.3033587516       -0.4560200417       -1.7152804763
 N          3.2166467347        1.2969633683       -1.2075817754
 S          4.7927937063        1.4089021896       -0.6677199673
 O          4.9771287348        2.6379205384        0.0637210746
 O          5.6124487104        1.2499452719       -1.8486618692
 C          5.0010745374        0.0178304325        0.4310069639
 C          4.8193221012       -1.2502410407       -0.0849313695
 C          4.9387667250       -2.3412833991        0.7599304606
 C          5.2357365415       -2.1470294207        2.1004688136
 C          5.4204629892       -0.8683809299        2.6020834018
 C          5.3002534132        0.2269296826        1.7615305599
 H          5.4326164466        1.2380523004        2.1105961304
 H          5.6534744381       -0.7204572379        3.6442350488
 H          5.3240532693       -2.9983757750        2.7567544400
 H          4.7968915168       -3.3372728635        0.3720933112
 H          4.5956301914       -1.3671583076       -1.1331384511
 H          3.1544405736        0.8847975956       -2.1259783613
 H          2.9452891640        2.1069990941        1.2686145373
 H          1.2154229534        1.3310131939        2.8696608386
 H         -0.4717470118       -0.3203139669        2.1536435664
 H         -0.9545961730       -2.1543704198        0.6309168632
 C         -0.3369139048       -2.3973971011       -1.3766647268
 C         -1.3588741277       -3.1677855728       -2.1566081604
 C         -0.5835177434       -2.0696691087       -2.8176771252
 H          0.1731975988       -2.3427660652       -3.5393415502
 H         -1.0893803755       -1.1454574581       -3.0484857434
 H         -1.1403110943       -4.1897871345       -2.4270073619
 H         -2.3988623859       -2.9890834670       -1.9252127666
 H          0.5892358088       -2.9180181065       -1.1516757220
