  62
        -98.93436697
 C         -2.4546698501       -1.1755956501        0.0479596409
 C         -2.5801695901        0.0307595195       -0.6783502798
 C         -3.9464948201        0.5632434093       -0.8331711203
 C         -4.9832595501       -0.1020574805       -0.2904713201
 C         -6.4710910101        0.1790145894       -0.3240582804
 C         -6.9969695402        1.5583986991       -0.7139928312
 C         -6.6451371304        2.6804106597        0.2618658482
 H         -7.1874262305        2.5126072202        1.1957456882
 H         -6.9977378204        3.6228726394       -0.1628349423
 C         -5.1640626204        2.8159204300        0.6073108584
 H         -4.8274222305        1.9241869103        1.1401964289
 H         -5.0572262606        3.6594631703        1.2947277479
 C         -4.2341344303        3.0639243394       -0.5790778016
 H         -3.2455500004        3.3018002097       -0.1770050716
 H         -4.5829323503        3.9294414391       -1.1456175121
 C         -4.0630332301        1.8790665989       -1.5464271510
 H         -3.1222655000        2.0180606287       -2.0870713609
 H         -4.8622622100        1.8480394985       -2.2830575311
 H         -8.0869985102        1.4769218891       -0.7428334814
 H         -6.6742272900        1.8150539386       -1.7186097013
 H         -6.8423427103       -0.0765867501        0.6732955497
 H         -6.8987120900       -0.5598657910       -1.0108174001
 O         -4.8100949701       -1.2714667901        0.3942384306
 C         -3.5594000801       -1.8275837699        0.5910696511
 O         -3.5631718202       -2.8814119296        1.2593630216
 O         -1.6008496900        0.6400272293       -1.1828090700
 C         -1.0850164001       -1.7910271299        0.2687778414
 C         -0.1813400703       -0.7964156895        0.9564491910
 C         -0.6144921005       -0.2101241789        2.1436548506
 C          0.1767995194        0.7052746215        2.8090669303
 C          1.4215424194        1.0490580513        2.3110285703
 C          1.8619122896        0.4723928707        1.1260691806
 C          1.0637593098       -0.4481659397        0.4599784710
 H          1.4320500200       -0.8803070902       -0.4547719287
 N          3.1048904197        0.8297853805        0.5796884906
 S          3.9941195399       -0.3224850499       -0.2721566886
 O          3.4819459601       -0.4220196906       -1.6152810387
 O          4.0598194699       -1.5555333195        0.4804922520
 C          5.5899617898        0.4734663102       -0.2992556988
 C          5.7954128099        1.5033577997       -1.1981944494
 C          7.0215082999        2.1487452698       -1.2085096995
 C          8.0165671798        1.7556692004       -0.3255182392
 C          7.7967216397        0.7190271708        0.5688102414
 C          6.5716204897        0.0705761507        0.5859992215
 H          6.3573647797       -0.7445105689        1.2583776419
 H          8.5734238496        0.4138732112        1.2513647616
 H          8.9703464297        2.2590493904       -0.3368556993
 H          7.1970150299        2.9533847995       -1.9041992599
 H          4.9961579900        1.7672069793       -1.8711886496
 H          3.6859581696        1.3446520309        1.2268638604
 H          2.0410463693        1.7644887116        2.8303008600
 H         -0.1744470208        1.1517358620        3.7273730700
 H         -1.5861019205       -0.4834092988        2.5340586106
 H         -1.2380637201       -2.6402751996        0.9515427818
 C         -0.5253923899       -2.3140651406       -1.0370782782
 C          0.4927738902       -3.4131646405       -1.0303685575
 C         -0.9037384197       -3.6873572409       -1.4998645976
 H         -1.0717319895       -3.8480609814       -2.5541540575
 H         -1.5551758398       -4.2641675906       -0.8593405973
 H          1.2902825203       -3.3797919209       -1.7580076774
 H          0.7963071601       -3.8065692100       -0.0715737173
 H         -0.4315476098       -1.5404734310       -1.7914013186
