  62
        -98.95003501
 C         -1.9056292804       -1.0376486994        0.0204424883
 C         -1.3280224106       -1.8139604188       -1.0145409722
 C         -0.2587363513       -2.7332106298       -0.6068862527
 C          0.0808959184       -2.8298245211        0.6914741973
 C          1.1063174877       -3.7642233521        1.2750388268
 C          2.5510810280       -3.2512795729        1.2069243876
 C          3.1764914883       -3.2594617621       -0.1879639523
 H          4.2475795784       -3.0900114629       -0.0629317819
 H          3.0521943379       -4.2442866017       -0.6394867031
 C          2.6164403892       -2.1848997710       -1.1291131515
 H          3.4354193396       -1.6753077711       -1.6429272509
 H          2.0974042195       -1.4196425712       -0.5480472810
 C          1.6665160091       -2.7022798596       -2.2093816322
 H          2.2151666389       -3.3361489393       -2.9103949526
 H          1.2928293398       -1.8338245889       -2.7595264615
 C          0.4634305085       -3.4926285793       -1.6774345031
 H         -0.2350642614       -3.6488000083       -2.5035691434
 H          0.7882585079       -4.4645390198       -1.3049765738
 H          3.1531585675       -3.8912615538        1.8557563572
 H          2.5860027085       -2.2365309133        1.6094193284
 H          1.0406345572       -4.7312627217        0.7752667460
 H          0.8385404173       -3.8976137429        2.3253925666
 O         -0.5197628915       -2.0890535315        1.6596386678
 C         -1.4895071908       -1.1437156007        1.3473597784
 O         -1.8921561407       -0.4887314313        2.3264972388
 O         -1.6974269703       -1.7482129676       -2.2178785122
 C         -2.9558541998        0.0010332115       -0.3390825511
 C         -2.3727508590        1.3693629110       -0.0795438298
 C         -2.9081655687        2.2871043006        0.8137862008
 C         -2.2680920481        3.4939308300        1.0392751120
 C         -1.0828502777        3.8014349998        0.3970728025
 C         -0.5435523180        2.8944026303       -0.5096978381
 C         -1.2037675887        1.7010985109       -0.7556170092
 H         -0.7885965489        1.0053071912       -1.4708620097
 N          0.6534182223        3.1842462601       -1.1876324276
 S          1.8630249017        2.0441428596       -1.3593184782
 O          2.9706750022        2.7835979694       -1.9241554273
 O          1.3850941312        0.9250617605       -2.1268058193
 C          2.2848139910        1.5390349680        0.2988922915
 C          1.4384392403        0.6902942279        0.9838214806
 C          1.7485543898        0.3382016767        2.2880754704
 C          2.9020576999        0.8292589155        2.8802667210
 C          3.7464283306        1.6761410556        2.1780680519
 C          3.4335236811        2.0414650268        0.8786555222
 H          4.0594294516        2.6973713870        0.2955884329
 H          4.6438436707        2.0544956647        2.6403251525
 H          3.1407841395        0.5469810945        3.8935440909
 H          1.0767023093       -0.3125559034        2.8271731997
 H          0.5484703602        0.3149226788        0.5021604100
 H          1.0527275727        4.0827763797       -0.9572415767
 H         -0.5774322172        4.7354811794        0.5900139834
 H         -2.6913331878        4.1989205197        1.7384630225
 H         -3.8179513390        2.0543187807        1.3414283304
 H         -3.1099525596       -0.1049374375       -1.4230243612
 C         -4.2658283701       -0.2601792983        0.3706958084
 C         -5.5414601196        0.2843996829       -0.1968917514
 C         -5.2612337305       -1.1862578772       -0.2586520826
 H         -5.8254483610       -1.8477179674        0.3815023667
 H         -5.0029023605       -1.6200418666       -1.2138417129
 H         -6.3030327696        0.6321333928        0.4843867187
 H         -5.4775420191        0.8509798436       -1.1136357410
 H         -4.1600376504       -0.3015355792        1.4483687884
