  62
        -98.92818679
 C         -2.0198969933       -1.6133952915       -0.0153545480
 C         -1.6908121740       -0.3270877448       -0.5054992980
 C         -2.8120369243        0.6290140918       -0.6028011191
 C         -4.0598997228        0.2258714279       -0.3108526846
 C         -5.3488471021        1.0012560184       -0.4251302792
 C         -5.3575806094        2.4415896080        0.1050761800
 C         -4.4321453715        2.6954098141        1.3033908653
 H         -4.9980159751        3.2017235380        2.0878192350
 H         -4.0828396801        1.7469555794        1.7152225061
 C         -3.2305980737        3.5739669121        0.9493384741
 H         -3.5763799151        4.3987063366        0.3222478692
 H         -2.8321775840        4.0085190694        1.8693665023
 C         -2.0728767713        2.8636624197        0.2478192848
 H         -1.3524138200        3.6269850145       -0.0506594902
 H         -1.5632984121        2.1980156593        0.9500156512
 C         -2.4447486672        2.0323592680       -0.9909345567
 H         -1.5522210329        1.9469682341       -1.6165073379
 H         -3.2334445353        2.5111897976       -1.5663432694
 H         -5.0923149870        3.1272960307       -0.6984242610
 H         -6.3875554418        2.6692536351        0.3849247471
 H         -6.0863211136        0.4066854019        0.1193183341
 H         -5.6508812509        1.0047203983       -1.4764896642
 O         -4.3345565705       -1.0404036110        0.1156619296
 C         -3.3309621411       -1.9717755774        0.2985526427
 O         -3.7229871424       -3.0738640449        0.7356282548
 O         -0.5351895083        0.0191238548       -0.8566286021
 C         -0.9679668878       -2.7031695737        0.1696005536
 C          0.2745791204       -2.1028781075        0.7771463138
 C          0.1623410799       -1.6875611462        2.1050992880
 C          1.2144291136       -1.0823859339        2.7630728396
 C          2.4251832274       -0.8872276676        2.1215261466
 C          2.5534848268       -1.2960102885        0.8029750782
 C          1.4855905822       -1.8899043922        0.1395251181
 H          1.6237842563       -2.1482906593       -0.8951157447
 N          3.7804435237       -1.1319927589        0.1326964197
 S          4.5335317306        0.3608585188        0.1378217216
 O          5.5657248376        0.2553309614       -0.8690892475
 O          4.9790075710        0.6670048134        1.4740247146
 C          3.2952124761        1.5306204011       -0.3823414299
 C          2.6074206079        2.2659815698        0.5600440798
 C          1.6316593455        3.1514823116        0.1331750185
 C          1.3583262144        3.2788761253       -1.2191563349
 C          2.0525447378        2.5263317531       -2.1528246070
 C          3.0299986206        1.6409418079       -1.7323946553
 H          3.6019298752        1.0480184190       -2.4283653889
 H          1.8322957408        2.6248171198       -3.2038186745
 H          0.5996605111        3.9703423056       -1.5515078158
 H          1.0868953980        3.7355584683        0.8577211129
 H          2.8521617309        2.1407960301        1.6022104687
 H          3.7756135211       -1.5022002532       -0.8070975789
 H          3.2610630437       -0.4218758911        2.6178468334
 H          1.0946325007       -0.7638819291        3.7878351382
 H         -0.7805023826       -1.8350398024        2.6153993265
 H         -1.3914126277       -3.3743166541        0.9353512297
 C         -0.9198464375       -3.5429222431       -1.1001850534
 C         -0.2628182255       -3.1377603851       -2.3829873890
 C          0.2643574843       -4.3090747170       -1.6052058685
 H          0.0860626253       -5.2968353257       -2.0043491877
 H          1.2010640927       -4.2204649794       -1.0795402317
 H         -0.7944711843       -3.3372292503       -3.3026788175
 H          0.2829658164       -2.2081392356       -2.4046752000
 H         -1.8811392317       -4.0400115946       -1.2127279197
