  62
        -98.94947349
 C         -2.0512774731       -0.3804085671       -0.3120862412
 C         -1.3966466758       -1.3067124132       -1.1566582021
 C         -1.0240414803       -2.5852065411       -0.5406890459
 C         -1.2675739746       -2.7895385366        0.7668261245
 C         -0.9499488144       -4.0396812564        1.5419511394
 C          0.5032853151       -4.1112980484        2.0306450883
 C          1.5346544580       -4.4387976831        0.9503142515
 H          2.4644202150       -4.6939070172        1.4628008595
 H          1.2128139546       -5.3217964557        0.3962920970
 C          1.8122794521       -3.2860329638       -0.0243330702
 H          1.4704686217       -2.3482333634        0.4217622818
 H          2.8909645279       -3.1874498779       -0.1723681340
 C          1.1802804571       -3.4600914788       -1.4053862082
 H          1.6128662193       -4.3362605615       -1.8941447133
 H          1.4289326171       -2.5846962932       -2.0089517715
 C         -0.3459964139       -3.6153796710       -1.3953552931
 H         -0.7085661671       -3.4834301582       -2.4181719817
 H         -0.6165198521       -4.6155743778       -1.0565119994
 H          0.7615089814       -3.1576302333        2.4987567397
 H          0.5525875970       -4.8861896094        2.7995745462
 H         -1.6076373151       -4.0380987841        2.4139443916
 H         -1.1765831233       -4.9182482505        0.9365803242
 O         -1.8730265386       -1.8623499908        1.5538509797
 C         -2.2685337751       -0.6365894860        1.0421638944
 O         -2.8079835169        0.1168314860        1.8761082425
 H          0.0733707471        1.0509716245       -0.1908051287
 C         -0.4437995316        1.9077518968        0.2079866679
 C         -1.7975236078        2.0597596174       -0.0627885212
 C         -2.4531782207        3.1738972571        0.4419380695
 C         -1.7717573344        4.0779620481        1.2397469939
 C         -0.4422871108        3.8826795708        1.5641086411
 C          0.2289349315        2.7794470390        1.0450419259
 N          1.5771022698        2.5510820063        1.3432952676
 S          2.3047058347        1.0495387493        1.2393647936
 O          1.3894161280       -0.0382536964        1.4895452829
 O          3.4358278767        1.1494830328        2.1381339404
 C          2.9127267700        1.0220517428       -0.4346467400
 C          2.3143567740        0.2363001185       -1.3972719219
 C          2.8045799939        0.2696287932       -2.6935958325
 C          3.8820859128        1.0836950868       -3.0043453289
 C          4.4778462086        1.8648776794       -2.0250416142
 C          3.9896467426        1.8366328001       -0.7294490213
 H          4.4280820400        2.4188750679        0.0638288318
 H          5.3178197502        2.4951644197       -2.2686785371
 H          4.2587544403        1.1066601234       -4.0147301143
 H          2.3321561824       -0.3370180222       -3.4503034284
 H          1.4757140990       -0.3890230805       -1.1322552296
 H          1.9668485134        3.1243176689        2.0754133282
 H          0.0725251434        4.5693743768        2.2184678439
 H         -2.2924601061        4.9368113989        1.6358129567
 H         -3.4990444418        3.3255245261        0.2308693227
 C         -2.4671321260        0.9720460708       -0.8665775059
 H         -2.0802751304        1.0032164799       -1.8960848839
 C         -3.9760005661        1.0900923264       -0.9052654879
 C         -4.6413592112        1.9617438240       -1.9271432651
 C         -4.7238265807        0.4704610907       -2.0462916631
 H         -5.6662914650       -0.0147717942       -1.8414192857
 H         -4.1401206069       -0.0169030081       -2.8134195186
 H         -5.5320785742        2.5013342457       -1.6427105215
 H         -4.0067963614        2.4905591483       -2.6218865444
 H         -4.4210859037        1.0217627449        0.0813707495
 O         -1.1374906307       -1.0783538536       -2.3699901791
