  62
        -98.93437800
 C         -2.2299319343       -0.7844150002       -0.1358206082
 C         -3.1597454935       -0.6638028047        0.9275605312
 C         -4.2127540830        0.3612351558        0.8020299101
 C         -4.2261371928        1.1370749103       -0.2972458764
 C         -5.2141039099        2.2100396066       -0.6694630683
 C         -6.5476560250        1.6354096161       -1.1756265481
 C         -7.0895772767        0.4584418937       -0.3683234628
 H         -7.9664165997        0.0715172762       -0.8942642504
 H         -6.3442245665       -0.3389487232       -0.3527596471
 C         -7.5109601465        0.7879832218        1.0616988135
 H         -7.9470068845       -0.1189653943        1.4882339792
 H         -8.2915978728        1.5516480075        1.0374404887
 C         -6.3962777165        1.2635661311        1.9955028670
 H         -6.7915889547        1.2328845217        3.0150361110
 H         -6.1352647626        2.2996020711        1.7972626780
 C         -5.1434771368        0.3929351989        1.9901752148
 H         -4.5188148131        0.6751679417        2.8462513666
 H         -5.4297017696       -0.6486316263        2.1749715703
 H         -6.3982864281        1.2927340206       -2.2025242760
 H         -7.2855603716        2.4391558346       -1.1926822120
 H         -4.7583578713        2.7913148864       -1.4741621589
 H         -5.3730997944        2.8777244480        0.1720988980
 O         -3.3025344351        0.9996717769       -1.2897779599
 C         -2.2921945756        0.0528691492       -1.2491633138
 O         -1.5442375020        0.0812656480       -2.2462709371
 O         -3.1235929581       -1.4014419364        1.9488802558
 C         -1.1831252897       -1.8759985873       -0.0019545771
 C          0.1170872321       -1.3495443340        0.5472185252
 C          0.7451785242       -1.9701541969        1.6205205609
 C          1.9607960325       -1.5052252866        2.0919846970
 C          2.5774314824       -0.4184338989        1.4978591573
 C          1.9555412108        0.2100825227        0.4274044349
 C          0.7332276696       -0.2504554443       -0.0355820555
 H          0.2625096498        0.2370924810       -0.8773185424
 N          2.6008208694        1.3015932463       -0.2035212322
 S          3.9163425491        0.8312448629       -1.1521949667
 O          4.1322791710        1.9127474650       -2.0879183998
 O          3.7044371320       -0.4806789031       -1.7214533323
 C          5.2650657771        0.7775334273        0.0079284548
 C          5.8556874680       -0.4315044006        0.3188533960
 C          6.8997374251       -0.4512224384        1.2306436175
 C          7.3315225866        0.7314822820        1.8115391720
 C          6.7289792999        1.9379240759        1.4863322209
 C          5.6851660157        1.9648894296        0.5753196844
 H          5.1923182063        2.8789859157        0.2888586217
 H          7.0684779756        2.8554706921        1.9392563031
 H          8.1430749004        0.7131412222        2.5217211003
 H          7.3697849892       -1.3877018778        1.4843868243
 H          5.4826016989       -1.3249012524       -0.1554431514
 H          1.9670973610        1.8305331627       -0.7884949879
 H          3.5248517318       -0.0510089817        1.8570850351
 H          2.4348565842       -1.9960440130        2.9278982705
 H          0.2688099600       -2.8187407097        2.0894350313
 H         -1.6014598978       -2.5673615191        0.7467248261
 C         -0.9894540801       -2.6680589070       -1.2895779042
 C          0.2480687655       -2.6190990216       -2.1306033872
 C         -0.0550585912       -3.8413331078       -1.3196659550
 H         -0.3662563725       -4.7401995967       -1.8298549883
 H          0.5501668994       -4.0151203100       -0.4427648381
 H          0.1214029667       -2.6597907319       -3.2022726678
 H          1.0691828252       -1.9880048974       -1.8251871873
 H         -1.9232388020       -2.7801519319       -1.8325411620
