  62
        -98.94394120
 C          0.0244777932       -2.2286985094        0.6093490605
 C          0.7198588210       -1.1507012275        1.2127354936
 C          2.1702234005       -1.1063879755        0.9644222857
 C          2.7376193763       -2.0177852631        0.1563124113
 C          4.1910328695       -2.0536294176       -0.2169763101
 C          4.4640469989       -1.2649420235       -1.5045673198
 C          3.8692745571        0.1437997655       -1.5130650720
 H          4.1794841942        0.6197698334       -2.4466838035
 H          2.7780399809        0.0814429441       -1.5413443112
 C          4.2935924048        1.0218895890       -0.3277211443
 H          4.5410710109        2.0166029582       -0.7048124479
 H          5.1948612260        0.6155645131        0.1337414760
 C          3.2085100925        1.2043093260        0.7348801678
 H          3.4956287424        2.0383605328        1.3807194717
 H          2.2689938408        1.4709135354        0.2442878508
 C          2.9452603503       -0.0080740584        1.6357018179
 H          3.8887125874       -0.3875712560        2.0339146281
 H          2.3254531588        0.3286499008        2.4717734619
 H          4.0410344177       -1.8177000138       -2.3467534688
 H          5.5451580200       -1.2042014260       -1.6465754084
 H          4.7796854756       -1.6450670346        0.6022686891
 H          4.4778001074       -3.0951445422       -0.3743103563
 O          2.0316451328       -3.0103170979       -0.4446227805
 C          0.6693337162       -3.1344228735       -0.2359821864
 O          0.1461572859       -4.0931896944       -0.8422178769
 H         -1.1357589810        0.1108278616        0.0513572407
 C         -1.9139970429       -0.3618466939       -0.5237760384
 C         -2.2312515986       -1.6902555868       -0.2784976615
 C         -3.2385246115       -2.2865358453       -1.0272075430
 C         -3.9024420229       -1.5672535620       -2.0060965433
 C         -3.5631158921       -0.2519524573       -2.2676658082
 C         -2.5559057357        0.3525530872       -1.5229053816
 N         -2.1904534958        1.6877403311       -1.7451994585
 S         -0.6056071124        2.1963481854       -1.5569405950
 O         -0.4599249536        3.2924088475       -2.4944462825
 O          0.3309296994        1.1088011541       -1.7246455474
 C         -0.5046172981        2.8656230594        0.0912335937
 C          0.6328879520        3.5914853454        0.3878588082
 C          0.7806529958        4.1263373787        1.6566079159
 C         -0.2107849771        3.9296638098        2.6051392857
 C         -1.3519543406        3.2117232393        2.2879092701
 C         -1.5060242149        2.6745636316        1.0192034483
 H         -2.3862602527        2.1129461791        0.7544034616
 H         -2.1241798684        3.0603977720        3.0248909500
 H         -0.0930588147        4.3388394853        3.5962319744
 H          1.6674585157        4.6891492394        1.9004743754
 H          1.3764024713        3.7257066697       -0.3822158182
 H         -2.6296607666        2.1321093065       -2.5374725531
 H         -4.0674582669        0.3030513547       -3.0439890432
 H         -4.6827022255       -2.0400914160       -2.5830735678
 H         -3.4853920644       -3.3236446038       -0.8531202011
 C         -1.4708455974       -2.4552056802        0.7738190245
 H         -1.6252348724       -3.5286131259        0.5780336053
 C         -1.9644012272       -2.1744979183        2.1869456396
 C         -2.8283017139       -1.0059260668        2.5427062584
 C         -3.4093855145       -2.3857850081        2.5311330828
 H         -3.6526032296       -2.8566092128        3.4715179448
 H         -4.0799819982       -2.6380053398        1.7235145669
 H         -3.1131933285       -0.3277334277        1.7542685243
 H         -2.6462191408       -0.5219025869        3.4895001819
 H         -1.2375748703       -2.4784612358        2.9330600368
 O          0.1841264481       -0.2691006509        1.9318264362
