  62
        -98.94517232
 C         -1.5826570502       -0.2971786416       -0.6168833290
 C         -2.8458879303       -0.9365635517       -0.7009527168
 C         -3.8527822303       -0.5228459382        0.2839301118
 C         -3.5224223001        0.3910470148        1.2143729988
 C         -4.4589092800        0.9340962284        2.2538948470
 C         -5.1793783798        2.1933762369        1.7519533528
 C         -5.8056415598        2.0358171224        0.3663543833
 H         -6.3118871097        2.9742284517        0.1301864502
 H         -5.0102842199        1.9047175498       -0.3707432063
 C         -6.8014530300        0.8736628621        0.2479251772
 H         -7.6868321900        1.2240107105       -0.2867469739
 H         -7.1258524901        0.5609604055        1.2410824883
 C         -6.2703725802       -0.3401616405       -0.5167769088
 H         -7.1129962704       -1.0034846711       -0.7292618065
 H         -5.8581874402       -0.0170396738       -1.4758811498
 C         -5.2060301804       -1.1726712883        0.2090789940
 H         -5.5620249004       -1.4355766449        1.2074490649
 H         -5.0628723105       -2.0968546202       -0.3584527229
 H         -4.4567635297        3.0116568866        1.7108053000
 H         -5.9525368297        2.4592382494        2.4751455419
 H         -5.1853049101        0.1672256794        2.5162931795
 H         -3.8762897199        1.1880072613        3.1412581061
 O         -2.2950718500        0.9639827549        1.2826136168
 C         -1.2946529501        0.6422923117        0.3740432879
 O         -0.2338148300        1.2673118821        0.5568216058
 H          1.9578347598       -0.1964222619       -0.5247065594
 C          1.6601020296       -1.2223769314       -0.4014429659
 C          0.4415625695       -1.6542828629       -0.9011958045
 C          0.0739414893       -2.9847570322       -0.7145192100
 C          0.9101750892       -3.8592335401       -0.0479984771
 C          2.1229991493       -3.4218643786        0.4562865314
 C          2.4950333895       -2.0944158892        0.2844534369
 N          3.7264118796       -1.6223241178        0.7682293854
 S          3.7623044298       -0.1824433149        1.6366435405
 O          4.9868580898       -0.2711173726        2.4077476608
 O          2.5503871199        0.0023401678        2.3982872300
 C          3.9696844000        1.0775259909        0.3973079563
 C          2.9796652401        2.0143792503        0.1780312332
 C          3.1831009403        2.9785510470       -0.7982140200
 C          4.3615060903        2.9907083044       -1.5282014601
 C          5.3463162401        2.0431365850       -1.2912141169
 C          5.1511972100        1.0763885883       -0.3186822737
 H          5.8919082599        0.3268295189       -0.0954026212
 H          6.2613765801        2.0554857130       -1.8610370370
 H          4.5111938404        3.7434857218       -2.2863104226
 H          2.4131628704        3.7109857265       -0.9836386624
 H          2.0629275901        1.9611756924        0.7457814634
 H          4.2872921395       -2.3257734564        1.2281027277
 H          2.7762002992       -4.1019450470        0.9824364836
 H          0.6152459190       -4.8891856696        0.0861486263
 H         -0.8814735607       -3.3194166333       -1.0936115489
 C         -0.5126391903       -0.7235286051       -1.6106596376
 H         -1.0465325804       -1.3132183075       -2.3690136756
 C          0.1716078898        0.4424679525       -2.2913838015
 C          1.0424809498        0.1811183784       -3.4828805406
 C         -0.2782172001        0.8674634780       -3.6557341829
 H         -0.2866109799        1.9215141773       -3.8888929564
 H         -1.0852184602        0.3135555967       -4.1129553710
 H          1.9452014899        0.7614715379       -3.5965787526
 H          1.1300732496       -0.8409362627       -3.8192124872
 H          0.4765031100        1.2237745548       -1.6073405041
 O         -3.1188582105       -1.8138448245       -1.5638268239
