  62
        -98.94504303
 C          2.5594830698        0.0018499078       -0.3600218109
 C          2.1979863404        0.6006402485        0.8711388690
 C          1.8886148913        2.0363500487        0.8184128886
 C          1.9750963715        2.6872825782       -0.3554709216
 C          1.7135342125        4.1532021483       -0.5489673921
 C          0.2605943726        4.4337953492       -0.9513391419
 C         -0.7761900677        3.7564882702       -0.0553277515
 H         -1.7611721575        4.0867803507       -0.3944710314
 H         -0.7379601284        2.6751472301       -0.2055116111
 C         -0.6251619172        4.0577758506        1.4420741984
 H         -0.0288807766        4.9604861502        1.5841723580
 H         -1.6165182870        4.2528742414        1.8559855285
 C         -0.0225790278        2.9095920204        2.2549614486
 H         -0.2215826375        3.0979942809        3.3136097086
 H         -0.5221219785        1.9766583207        1.9810380191
 C          1.4907312820        2.7064108794        2.1026992384
 H          2.0071948427        3.6622336191        2.2189436980
 H          1.8214055617        2.0366889494        2.9020135386
 H          0.1087773122        4.0809715989       -1.9744054918
 H          0.1055558833        5.5148444293       -0.9375348623
 H          1.9518898030        4.6783023585        0.3742222577
 H          2.3738177226        4.5123839576       -1.3409657823
 O          2.3143466809        2.0747267176       -1.5206680215
 C          2.5887535900        0.7175567374       -1.5545358611
 O          2.8550348295        0.2741575769       -2.6928672710
 H          0.2797491391       -0.9611505807       -0.6784013301
 C          0.4419631486       -1.8743681107       -0.1235187998
 C          1.7406045283       -2.3037010314        0.1181133301
 C          1.9253516877       -3.4969695613        0.8047064704
 C          0.8342483273       -4.2271232405        1.2452236409
 C         -0.4550707825       -3.7791040997        1.0298254210
 C         -0.6502648718       -2.5805300498        0.3495837506
 N         -1.9481039815       -2.0688375290        0.1787698407
 S         -2.2271063007       -0.5998671391       -0.5744598098
 O         -1.9446490210       -0.6746612097       -1.9940180298
 O         -1.5488907599        0.4315205507        0.1656614298
 C         -3.9865423005       -0.4711630778       -0.3199411295
 C         -4.8523767310       -0.8149695076       -1.3403326892
 C         -6.2182452209       -0.7385434366       -1.1161642690
 C         -6.6922988804       -0.3236648959        0.1190977910
 C         -5.8110049199        0.0207598939        1.1334518007
 C         -4.4445990200       -0.0526788671        0.9149666205
 H         -3.7213067797        0.2125572427        1.6686990502
 H         -6.1828867296        0.3462435645        2.0915481006
 H         -7.7553269403       -0.2650093451        0.2915368911
 H         -6.9052768512       -1.0015850564       -1.9042495288
 H         -4.4369569313       -1.1225367382       -2.2865903792
 H         -2.6619771020       -2.7604723586        0.0071181710
 H         -1.3041453628       -4.3391694790        1.3887322313
 H          0.9925645367       -5.1557063104        1.7723916012
 H          2.9240328375       -3.8552291319        0.9947019504
 C          2.8880087988       -1.4780819724       -0.4137414104
 H          3.0165039884       -1.7224476128       -1.4798208104
 C          4.1940784487       -1.7461055830        0.3088108194
 C          5.1288737179       -2.8128847338       -0.1744920604
 C          5.4791461889       -1.3683720941       -0.3626718809
 H          6.2696026592       -0.9430596244        0.2370917988
 H          5.4100999789       -0.9479206244       -1.3558484111
 H          5.6849232977       -3.3806431039        0.5563054297
 H          4.8366043674       -3.3776240639       -1.0470555501
 H          4.1169329490       -1.5736627226        1.3762448894
 O          2.1560974002       -0.0279237911        1.9613660292
