  62
        -98.93300947
 C         -2.2963240751       -1.2566833961        0.0714700449
 C         -3.2347712618       -0.6364420768        0.9337601522
 C         -4.1216918833        0.3674909301        0.3269382488
 C         -3.9769164050        0.6624724946       -0.9775484331
 C         -4.7461630773        1.7136201449       -1.7261185721
 C         -4.1886259460        3.1122414136       -1.3929310718
 C         -5.1643593951        4.0167534764       -0.6397313673
 H         -4.5981376706        4.8761314558       -0.2741479174
 H         -5.9143470278        4.3902920336       -1.3399956430
 C         -5.9032967625        3.3698563685        0.5357825865
 H         -6.3431071564        4.1809296641        1.1200370830
 H         -6.7344627682        2.7702050597        0.1618671154
 C         -5.0505211268        2.4988778640        1.4675129234
 H         -4.0017669181        2.7933595508        1.4171001051
 H         -5.3798074549        2.6752792308        2.4936271821
 C         -5.1675134088        0.9839997196        1.2143957967
 H         -6.1617196807        0.7557540507        0.8201489141
 H         -5.0656825645        0.4621967841        2.1707002304
 H         -3.2777021692        2.9864209393       -0.8035449309
 H         -3.8971833647        3.6170340685       -2.3151591182
 H         -4.6320678532        1.5030876947       -2.7896083614
 H         -5.8010796479        1.6502704267       -1.4687150708
 O         -3.0345305287        0.0813519822       -1.7623135861
 C         -2.1651704871       -0.8837940194       -1.2671288729
 O         -1.3506918453       -1.3038450973       -2.1075766923
 O         -3.3233116925       -0.9079434208        2.1621900150
 C         -1.3683846271       -2.2973449142        0.6721895957
 C          0.0599281745       -2.0123023487        0.2792393321
 C          0.8713755320       -2.9144892893       -0.3943859832
 C          2.1743671460       -2.5771558091       -0.7176136390
 C          2.6949973390       -1.3420725761       -0.3802569423
 C          1.8944214578       -0.4328982765        0.2993832315
 C          0.5932083185       -0.7772825570        0.6297028960
 H         -0.0319388631       -0.0673268839        1.1591316341
 N          2.4074918206        0.8331814345        0.6312374435
 S          3.9000910083        0.9208263059        1.3932306487
 O          4.1548610092       -0.2533821086        2.1953752003
 O          3.8897739878        2.1868088023        2.0937203575
 C          5.0654661638        1.0104936301        0.0507235930
 C          4.9017562512        2.0117700567       -0.8862342398
 C          5.8039090958        2.1011825353       -1.9341533342
 C          6.8502557698        1.1951892283       -2.0248822416
 C          7.0030774030        0.1980384878       -1.0738201309
 C          6.1033395155        0.1023379779       -0.0235408285
 H          6.1787991971       -0.6596944144        0.7357415431
 H          7.8171018547       -0.5051487964       -1.1462790257
 H          7.5505528006        1.2670671385       -2.8420079356
 H          5.6877280490        2.8749597442       -2.6759115197
 H          4.0771666604        2.6966710329       -0.7783118360
 H          1.7389285955        1.4378798638        1.0855940816
 H          3.7063216075       -1.0746170729       -0.6390840958
 H          2.7916496495       -3.2853995957       -1.2489386446
 H          0.4780653169       -3.8738798436       -0.6867743895
 H         -1.4522124125       -2.1385548893        1.7610861199
 C         -1.7910718404       -3.7363400768        0.4174002000
 C         -3.2289028919       -4.0894416294        0.1843795975
 C         -2.2358860702       -4.2193841207       -0.9293533862
 H         -1.9429397125       -5.2120742432       -1.2387399348
 H         -2.2636516795       -3.5014432849       -1.7335025136
 H         -3.6161266602       -4.9886760160        0.6395416202
 H         -3.9429300998       -3.2796749043        0.1416429134
 H         -1.2195969371       -4.4355303639        1.0204883029
