  62
        -98.94473191
 C         -1.8269487218       -0.4683583144       -0.5297311823
 C         -2.8677985842       -1.2871661747       -0.0298240085
 C         -4.2313426985       -0.7937300908       -0.2512123244
 C         -4.4231029876        0.3621986430       -0.9127958348
 C         -5.7542696116        0.9812251492       -1.2435735834
 C         -6.3549634321        1.8194549047       -0.1067759635
 C         -6.8969393902        1.0168220682        1.0766586322
 H         -7.4787004683        1.7063225315        1.6916617960
 H         -7.5812137778        0.2505116593        0.7111441971
 C         -5.8139363071        0.3690920364        1.9506528710
 H         -4.8506821449        0.8418904088        1.7453073481
 H         -6.0404217665        0.5487071518        3.0040673390
 C         -5.6729432167       -1.1421878504        1.7687994636
 H         -6.5898816659       -1.6375418649        2.0955524911
 H         -4.8567527896       -1.4897479862        2.4071617927
 C         -5.3680316808       -1.5794982730        0.3300198219
 H         -5.0702539387       -2.6307220357        0.3470138137
 H         -6.2579069121       -1.4779960934       -0.2907436102
 H         -7.1768298027        2.4010906973       -0.5307638458
 H         -5.5974082010        2.5233313577        0.2457027820
 H         -6.4589817645        0.2012811600       -1.5335753194
 H         -5.5868905308        1.6353947589       -2.1019833243
 O         -3.3951782023        1.1132424402       -1.3910664861
 C         -2.0748313761        0.7294241294       -1.1999069025
 O         -1.2379631744        1.5234133205       -1.6700983093
 O         -2.6660942946       -2.3759689784        0.5712983761
 C         -0.3880627868       -0.9158092560       -0.3408401126
 C          0.3867092079        0.1395943911        0.4062517088
 C         -0.1254712567        0.6056810278        1.6157817043
 C          0.5257351533        1.5928850100        2.3272131342
 C          1.7109130884        2.1296557256        1.8546151030
 C          2.2361463882        1.6659621999        0.6553861558
 C          1.5811000771        0.6679244512       -0.0564284011
 H          2.0031411315        0.3407067381       -0.9915427895
 N          3.4299445549        2.2001979735        0.1527710789
 S          4.5207699509        1.2409271227       -0.6628836048
 O          5.7802661978        1.9433062081       -0.5343112810
 O          4.0778017013        0.9921518495       -2.0113775437
 C          4.5868195995       -0.2911196386        0.2507636664
 C          4.7851185816       -0.2430836620        1.6167964832
 C          4.8387282534       -1.4304333096        2.3281817171
 C          4.6986816025       -2.6406502036        1.6658607451
 C          4.5094909802       -2.6727525303        0.2934008386
 C          4.4519376233       -1.4872785465       -0.4221939182
 H          4.3009390836       -1.4656889913       -1.4890572477
 H          4.4039303947       -3.6138343248       -0.2224567420
 H          4.7387361221       -3.5639118468        2.2220698442
 H          4.9886422445       -1.4090402512        3.3955541638
 H          4.8994756215        0.7107248092        2.1051261343
 H          3.8833871515        2.8783645790        0.7461752956
 H          2.2169899324        2.9101317190        2.4020500604
 H          0.1105017196        1.9492376739        3.2578423051
 H         -1.0533719357        0.1882514969        1.9824057607
 H         -0.4440823505       -1.8145627899        0.2913359354
 C          0.2145267287       -1.2996167773       -1.6751003869
 C          1.2894557609       -2.3404285017       -1.7487043687
 C         -0.0917559115       -2.6547962030       -2.2370577948
 H         -0.2574430951       -2.7475973592       -3.2999783045
 H         -0.7111524572       -3.3079646089       -1.6399257843
 H          2.0722638652       -2.2138790588       -2.4812141215
 H          1.6157072251       -2.7871258111       -0.8219428982
 H          0.2577461761       -0.4684750361       -2.3709115723
