  62
        -98.94508825
 C         -1.3944192537       -1.4250403418        0.4137080216
 C         -1.8641567176       -0.3944911426        1.2662298564
 C         -2.8075506447        0.5596772966        0.6750069004
 C         -3.1418468734        0.4462383413       -0.6227600868
 C         -4.0849546003        1.3441708339       -1.3761104492
 C         -3.4289841624        2.6338093089       -1.8888963378
 C         -3.1471286640        3.6903228851       -0.8196991580
 H         -2.9169818524        4.6202770627       -1.3436020279
 H         -4.0486183213        3.8614119766       -0.2296390618
 C         -1.9741706063        3.3504160900        0.1103632400
 H         -1.3513975808        2.5845007794       -0.3602547730
 H         -1.3407986729        4.2332498152        0.2317077354
 C         -2.3871362475        2.8945628828        1.5104082851
 H         -2.8832681843        3.7190697756        2.0279732764
 H         -1.4830748286        2.6439938022        2.0708726140
 C         -3.3174504290        1.6751766236        1.5377227852
 H         -3.3627875307        1.3044891290        2.5650263506
 H         -4.3210868382        1.9634020787        1.2253198925
 H         -2.4942201418        2.3747505370       -2.3933146183
 H         -4.1008477888        3.0689867640       -2.6327533918
 H         -4.4389828568        0.7718453895       -2.2363538069
 H         -4.9406416113        1.5932419130       -0.7472975315
 O         -2.6537213670       -0.5407943462       -1.4173099751
 C         -1.7487974973       -1.4790412045       -0.9360083609
 O         -1.3592122764       -2.2871630614       -1.7998559090
 H          0.7456551419       -0.3205436206       -0.2293750247
 C          1.3035532724       -1.2191239559       -0.4358210445
 C          0.8550519942       -2.4250390452        0.0862130659
 C          1.5648017444       -3.5789704069       -0.2181548578
 C          2.6808907134       -3.5144319301       -1.0360188440
 C          3.1122987578       -2.3125740865       -1.5658979369
 C          2.4043701038       -1.1514045544       -1.2710937341
 N          2.7788499451        0.0804591152       -1.8124502031
 S          2.1934824266        1.5416917488       -1.2844300638
 O          0.7710162829        1.6407801408       -1.5001374849
 O          3.0091781812        2.5117155964       -1.9839838315
 C          2.5767104950        1.5978630502        0.4566296274
 C          1.5672405412        1.6375620491        1.3956155605
 C          1.8983439455        1.6410059017        2.7411985288
 C          3.2301946463        1.6103016107        3.1233759170
 C          4.2357657692        1.5837238883        2.1683666104
 C          3.9086992782        1.5744358889        0.8225537506
 H          4.6619348113        1.5617147567        0.0519752262
 H          5.2707952438        1.5652485336        2.4693471063
 H          3.4835802801        1.6086352020        4.1717166539
 H          1.1094961682        1.6520648095        3.4768460765
 H          0.5388037889        1.6554075413        1.0693194477
 H          3.6560769870        0.1247678533       -2.3042551192
 H          3.9731344703       -2.2711730064       -2.2150559022
 H          3.2211059969       -4.4192615127       -1.2701593243
 H          1.2372880059       -4.5315560699        0.1643993349
 C         -0.3625918393       -2.3846593553        0.9787101614
 H         -0.0558368782       -1.9124772516        1.9286751758
 C         -0.8979621786       -3.7628172537        1.3410886434
 C         -2.3683724086       -4.0207012384        1.4744311053
 C         -1.6001985503       -4.6332314132        0.3438428892
 H         -1.4133705292       -5.6969514562        0.3689982511
 H         -1.7419083874       -4.2336275398       -0.6477693070
 H         -2.7060960833       -4.6588850924        2.2774391304
 H         -3.0434676300       -3.2076332503        1.2482379806
 H         -0.2636866473       -4.2696305316        2.0617530295
 O         -1.5032966238       -0.2724782759        2.4678224307
