  62
        -98.93609710
 C          2.6835280730        0.4222385139       -0.1292164239
 C          2.0258770045        1.1138421542        0.9178864464
 C          1.3290726314        2.3539684986        0.5339906047
 C          1.3564875835        2.7644674272       -0.7453782126
 C          0.5708019519        3.9120674076       -1.3124947333
 C         -0.8917479926        3.4696825065       -1.5267361879
 C         -1.9068118719        4.2045177824       -0.6509219523
 H         -2.0587022499        5.2104686751       -1.0490983531
 H         -2.8539280850        3.6670108736       -0.7319922392
 C         -1.5370376671        4.3373231893        0.8294845087
 H         -0.8308550767        5.1592578535        0.9589493608
 H         -2.4475965676        4.6208420539        1.3616877894
 C         -0.9520685870        3.0835720687        1.4929608988
 H         -1.2655277995        2.1774008040        0.9712456872
 H         -1.3540655777        3.0116966476        2.5062310012
 C          0.5840910571        3.0832416045        1.6170909687
 H          0.9495548435        4.1118608157        1.6883108064
 H          0.8559670290        2.5677364715        2.5429853801
 H         -1.1674464060        3.6209460856       -2.5719310760
 H         -0.9568363689        2.3953405969       -1.3361530969
 H          0.6213454629        4.7659083567       -0.6406000648
 H          1.0298085952        4.1846234301       -2.2632216810
 O          2.0511285821        2.1095562707       -1.7114736452
 C          2.6904243177        0.9152081699       -1.4367522574
 O          3.2441403547        0.3941058934       -2.4276372029
 H          0.7029859236       -1.0520785056        0.8029636476
 C          0.9446794449       -1.8445994716        0.1112756446
 C          2.2388008889       -1.9804216291       -0.3690879562
 C          2.5201676330       -3.0259341316       -1.2397849505
 C          1.5200655406       -3.8942656802       -1.6408637130
 C          0.2185631675       -3.7175602633       -1.2079098690
 C         -0.0699482771       -2.6808443229       -0.3269059081
 N         -1.3787652745       -2.4544772680        0.1284977822
 S         -1.8445175278       -0.8461623148        0.3806269220
 O         -1.2992293408        0.0030114880       -0.6545558423
 O         -1.5453986432       -0.4923410688        1.7437082962
 C         -3.6118519203       -0.9935228353        0.1891049753
 C         -4.2105190153       -0.5798564994       -0.9852270188
 C         -5.5815378822       -0.7292220637       -1.1276913047
 C         -6.3249988031       -1.2911308291       -0.1009331356
 C         -5.7098332154       -1.7014638293        1.0728447423
 C         -4.3404619369       -1.5521912504        1.2227740590
 H         -3.8192689559       -1.8447542686        2.1193522282
 H         -6.2913942155       -2.1350683218        1.8702346522
 H         -7.3911543011       -1.4071600670       -0.2149602820
 H         -6.0623131462       -0.4072369718       -2.0373149450
 H         -3.5916051377       -0.1449490621       -1.7538836561
 H         -2.0739258013       -2.9712729541       -0.3928515970
 H         -0.5694976204       -4.3702146770       -1.5515445682
 H          1.7504768605       -4.6997530374       -2.3214335806
 H          3.5228778118       -3.1384606701       -1.6241030746
 C          3.2934113469       -0.9647986828        0.0117411551
 H          4.0961107175       -1.0247716707       -0.7373769448
 C          3.8819062925       -1.2848119838        1.3694296919
 C          4.9692322300       -2.3115118245        1.4665757457
 C          5.2842602196       -0.8624736731        1.6828037566
 H          5.5035115512       -0.5196129818        2.6824243393
 H          5.8301074892       -0.3379768309        0.9119466399
 H          4.9752025803       -2.9718956243        2.3198773164
 H          5.3105428779       -2.7707039918        0.5512932433
 H          3.1586768091       -1.2383452744        2.1726606870
 O          1.9997608447        0.7348382000        2.1197056107
