  62
        -98.94331127
 C          1.3479175648        0.9590457814       -0.0033047472
 C          1.8371838540       -0.1471795102        0.7321500471
 C          2.8189119997       -0.9940845370        0.0410774243
 C          3.1635546210       -0.7008203193       -1.2262199344
 C          4.1849677067       -1.4507171470       -2.0305606299
 C          5.5827593715       -0.8384292315       -1.8642192430
 C          5.9829100544       -0.5991833432       -0.4083311351
 H          6.9974966298       -0.1949894628       -0.4127005103
 H          5.3332419533        0.1686818088        0.0178440486
 C          5.9353460466       -1.8520366825        0.4775270547
 H          5.9332460134       -2.7468684332       -0.1460207999
 H          6.8412834482       -1.8843361542        1.0864659711
 C          4.7484974796       -1.9024243780        1.4413556170
 H          4.6933720933       -0.9659279858        2.0018803136
 H          4.9299804161       -2.7047745320        2.1613694301
 C          3.3790918741       -2.1632214040        0.8012981083
 H          3.4334628589       -3.0487095230        0.1645738026
 H          2.6684038366       -2.3619583451        1.6087879175
 H          6.3083133632       -1.5013014021       -2.3393664750
 H          5.6051817218        0.1202313330       -2.3877327484
 H          4.1943505946       -2.4928589370       -1.7166429272
 H          3.8990412953       -1.4005692488       -3.0827345385
 O          2.6444345114        0.3494602169       -1.9130455817
 C          1.7293809555        1.2105033844       -1.3209462256
 O          1.3358758505        2.1310002439       -2.0615785798
 O          1.4652381068       -0.4154990775        1.9047346561
 C          0.3410758507        1.8800142194        0.6553621058
 C         -0.9782564827        1.8730225099       -0.0770146588
 C         -1.8161797142        2.9812015210       -0.1223049111
 C         -3.0503712966        2.9104006129       -0.7458966330
 C         -3.4815825354        1.7348925881       -1.3344066942
 C         -2.6500861997        0.6255435278       -1.2994210474
 C         -1.4168479107        0.6971424024       -0.6710810235
 H         -0.7822940489       -0.1805393659       -0.6390819977
 N         -3.1072620632       -0.5983769240       -1.8542325486
 S         -4.1389090947       -1.4231927885       -0.8166280023
 O         -4.3081262101       -2.7423613918       -1.3822995295
 O         -5.3341462889       -0.6385928969       -0.6464938630
 C         -3.2276349459       -1.5087649478        0.7133638321
 C         -2.3502522536       -2.5573319159        0.9057501138
 C         -1.5394075435       -2.5557443452        2.0288935930
 C         -1.6065300366       -1.5020350125        2.9269962410
 C         -2.4935300827       -0.4573076388        2.7195740694
 C         -3.3117480562       -0.4552178329        1.6014049215
 H         -4.0091502578        0.3422230156        1.4017350965
 H         -2.5407935530        0.3623450831        3.4184128619
 H         -0.9528029811       -1.4904819727        3.7843412618
 H         -0.8452441594       -3.3642553238        2.1934022857
 H         -2.3225661252       -3.3539542325        0.1786764403
 H         -2.3482861435       -1.2182017558       -2.1034579058
 H         -4.4476734612        1.6532310615       -1.8047048742
 H         -3.6867277692        3.7817433585       -0.7708602643
 H         -1.5020489021        3.9045569714        0.3364322210
 H          0.1655512475        1.4477272436        1.6530797727
 C          0.9217154837        3.2699639365        0.8231769865
 C          0.5767307767        4.1011461107        2.0218381962
 C          1.9425706415        3.4986436000        1.8963890148
 H          2.7792745961        4.1470893740        1.6837827456
 H          2.1914397449        2.6588300972        2.5287748072
 H          0.4767895283        5.1689063773        1.8969925469
 H         -0.0958996334        3.6755863633        2.7509332893
 H          1.0720058366        3.7734978192       -0.1252317978
