  62
        -98.94467963
 C         -2.0221720564       -0.7464933363        0.5600600572
 C         -1.9484425319       -0.0416085251       -0.6656027968
 C         -1.9677259095        1.4211803027       -0.5607392539
 C         -1.9939370552        2.0044189863        0.6508403183
 C         -1.9630240702        3.4844190422        0.9223497997
 C         -3.3341505868        4.1687943734        0.8324699695
 C         -3.8906917501        4.3279832580       -0.5828904660
 H         -4.7408702332        5.0097174224       -0.5174192565
 H         -3.1392016411        4.8021174069       -1.2147449254
 C         -4.3573998211        3.0169791349       -1.2306507098
 H         -4.4824628241        2.2540159198       -0.4589643990
 H         -5.3343273300        3.1677370439       -1.6951660514
 C         -3.4205002536        2.4756659683       -2.3105690146
 H         -3.3851208256        3.1738700094       -3.1496625820
 H         -3.8274430422        1.5293100218       -2.6752461554
 C         -1.9864084537        2.2184943931       -1.8292708787
 H         -1.4616821255        1.6343678999       -2.5893570751
 H         -1.4567944895        3.1611690915       -1.6915097848
 H         -4.0439937992        3.6060380894        1.4429764720
 H         -3.2302741487        5.1627350609        1.2736653408
 H         -1.5817747348        3.6034527262        1.9391489204
 H         -1.2653735506        3.9636028918        0.2344690412
 O         -2.0340908049        1.2907361670        1.8090656431
 C         -2.0501440075       -0.0944798362        1.7908701806
 O         -2.0922948505       -0.6236169689        2.9224168232
 O         -1.8716783665       -0.6047211899       -1.7891999496
 C         -1.9504417500       -2.2631578355        0.5601080157
 C         -0.6595174190       -2.6881447449       -0.0991376674
 C         -0.5670701763       -3.7263803880       -1.0165748317
 C          0.6458245922       -4.0228406507       -1.6150684891
 C          1.7801610956       -3.2874105645       -1.3259936721
 C          1.7015109323       -2.2604733677       -0.3912054236
 C          0.4947137569       -1.9883228455        0.2289864822
 H          0.4463654420       -1.1882762946        0.9547651495
 N          2.8342200885       -1.4998888638       -0.0501522963
 S          2.6061228178        0.1248002208        0.3543214480
 O          2.2494937176        0.2085725226        1.7499616264
 O          1.7072057120        0.7621456904       -0.5807289992
 C          4.2669061402        0.7363898288        0.1294641312
 C          5.1981773596        0.5067064254        1.1247627291
 C          6.4983319802        0.9496235912        0.9407777937
 C          6.8440974548        1.6104409531       -0.2288189479
 C          5.8983702490        1.8355471047       -1.2177287146
 C          4.5963999501        1.3936583690       -1.0407002423
 H          3.8246242807        1.5512610070       -1.7771575665
 H          6.1687073090        2.3525895437       -2.1242569281
 H          7.8563749101        1.9549034001       -0.3691933155
 H          7.2352887540        0.7786657749        1.7087141345
 H          4.8788535300       -0.0021437022        2.0193078618
 H          3.5946271598       -1.6140959735       -0.7068365506
 H          2.7174999534       -3.5019250655       -1.8162454878
 H          0.7031989946       -4.8266907542       -2.3332690341
 H         -1.4468245450       -4.2928251463       -1.2749019618
 H         -1.9160236500       -2.5683333004        1.6168498308
 C         -3.1843153141       -2.8587886271       -0.0848638306
 C         -3.6938352116       -4.1992078114        0.3499244759
 C         -4.4440128422       -2.9561989511        0.7203013407
 H         -5.3851692050       -2.7536760472        0.2317128303
 H         -4.4018445471       -2.6160945742        1.7451424559
 H         -4.1254009759       -4.8526416198       -0.3931488399
 H         -3.1501883753       -4.7117381163        1.1291222293
 H         -3.2769919052       -2.5859797679       -1.1297678719
