  62
        -98.94186455
 C         -2.7799551241       -0.2775504631       -0.2430237126
 C         -2.0521795848        0.5482982879       -1.1342326825
 C         -2.0449746402        1.9852201053       -0.8230974961
 C         -2.7262460310        2.4402173700        0.2425048545
 C         -2.7650769319        3.8700942295        0.6957658214
 C         -1.6669157116        4.1640238223        1.7268058901
 C         -0.2733654649        3.6911696952        1.3109400155
 H          0.4215355667        4.0058996857        2.0932105727
 H         -0.2453361843        2.5983771450        1.2902854208
 C          0.2074546788        4.2290283312       -0.0436892536
 H          1.2479709228        4.5437663121        0.0596645160
 H         -0.3738269338        5.1087987123       -0.3239747849
 C          0.1621638733        3.2011416093       -1.1760371646
 H          0.7580567942        3.5836441127       -2.0095576073
 H          0.6236436712        2.2718706911       -0.8300537526
 C         -1.2352803226        2.8770661312       -1.7213097314
 H         -1.7724842851        3.8033368963       -1.9353544611
 H         -1.1109188797        2.3266631849       -2.6583836069
 H         -1.9287273955        3.6669097844        2.6638529856
 H         -1.6460805805        5.2406038840        1.9076725023
 H         -2.6501487833        4.5218188112       -0.1681659292
 H         -3.7379465200        4.0569524610        1.1540707522
 O         -3.4434992681        1.6254481972        1.0577097033
 C         -3.4600993726        0.2575561672        0.8560934431
 O         -4.1230091223       -0.3733690619        1.7045389492
 H         -0.2803253211       -1.4070637349       -1.1652139012
 C         -0.3207821241       -2.0127905300       -0.2721080875
 C         -1.5539223130       -2.3468097469        0.2691791223
 C         -1.5806843161       -3.1135875494        1.4278367182
 C         -0.4032447029       -3.5164621534        2.0354477749
 C          0.8238102385       -3.1447209931        1.5142053304
 C          0.8565449912       -2.3832619778        0.3549575154
 N          2.1055270786       -1.9177532415       -0.1437688760
 S          2.5989938533       -0.5717743656        0.7668023062
 O          2.8904511379       -1.0285369639        2.1024707995
 O          1.6255384969        0.4929412378        0.6571505046
 C          4.1110260756       -0.1207164192       -0.0619354986
 C          5.2404878178       -0.8810022793        0.1734370826
 C          6.4133848566       -0.5595370476       -0.4902604864
 C          6.4363259897        0.5095946909       -1.3738172866
 C          5.2942043793        1.2625521939       -1.5998095381
 C          4.1168601714        0.9451626839       -0.9402538469
 H          3.2063281821        1.5060196107       -1.0818969572
 H          5.3144001484        2.0940568030       -2.2857893818
 H          7.3505681068        0.7591161608       -1.8887972408
 H          7.3040590773       -1.1415571596       -0.3169033352
 H          5.1751894760       -1.6963792821        0.8742981411
 H          1.9951942118       -1.5971376491       -1.0996793463
 H          1.7469957911       -3.4075021784        2.0039445512
 H         -0.4421300327       -4.1080187204        2.9377161038
 H         -2.5335150096       -3.3672563607        1.8699281920
 C         -2.8195552571       -1.7975984304       -0.3452947436
 H         -3.6644219736       -2.1183107406        0.2786128453
 C         -3.0373532528       -2.3151994729       -1.7524850797
 C         -3.5616962501       -3.7064067425       -1.9369872055
 C         -4.4354936738       -2.5285940318       -2.2453139423
 H         -4.6564319315       -2.3029610658       -3.2776161340
 H         -5.2444109643       -2.3010118337       -1.5661844129
 H         -3.1820896694       -4.2942546293       -2.7583801333
 H         -3.7802867897       -4.2800159432       -1.0489617929
 H         -2.3109090206       -1.9500011800       -2.4656081773
 O         -1.4293961010        0.1343048649       -2.1501699620
