  62
        -98.94532108
 C         -2.3649652080       -0.3613838841        0.0935238461
 C         -1.5541299096        0.2898117192       -0.8627685796
 C         -1.5787088934        1.7630900634       -0.8565597345
 C         -2.3167465127        2.4025431262        0.0672538242
 C         -2.5671785985        3.8811736195        0.2457138264
 C         -1.4290392539        4.8594662401       -0.0533691423
 C         -0.0444910987        4.4004367271        0.4257816187
 H         -0.1363455650        3.5166191580        1.0611791714
 H          0.4046842856        5.1901418441        1.0313117267
 C          0.9100270743        4.0805286718       -0.7254911650
 H          1.9352188481        4.1121527251       -0.3480308668
 H          0.8150964315        4.8489506346       -1.4963020502
 C          0.7015019302        2.7019420943       -1.3464544397
 H          0.9278913114        1.9416454754       -0.5950593383
 H          1.4210671582        2.5808068932       -2.1601498283
 C         -0.7128596996        2.4300648755       -1.8879698924
 H         -0.6281687097        1.7143050385       -2.7101837319
 H         -1.1701681416        3.3399883826       -2.2697775932
 H         -1.6913743046        5.7990590556        0.4368191909
 H         -1.3909418438        5.0632561966       -1.1222476363
 H         -3.4341506202        4.1456981129       -0.3686127072
 H         -2.8728615582        3.9909879608        1.2897654394
 O         -3.0412050003        1.7304949274        1.0098156446
 C         -3.0833034660        0.3492353679        1.0508507990
 O         -3.7866333103       -0.1203770767        1.9706481094
 H         -0.4354294633       -0.9797895812        1.6532971677
 C         -0.1331783104       -1.8469459883        1.0839203723
 C         -1.0399582473       -2.4588050890        0.2282294047
 C         -0.6274902337       -3.5808164198       -0.4804106944
 C          0.6668399657       -4.0549662228       -0.3531064163
 C          1.5810642871       -3.4099799277        0.4597481752
 C          1.1749737602       -2.2920238291        1.1790480118
 N          2.0716875828       -1.5794020376        2.0032391791
 S          2.3874086770        0.0121447306        1.5783731827
 O          3.3691797207        0.4679901094        2.5395880675
 O          1.1579817642        0.7591415832        1.5230712731
 C          3.1546973329       -0.1015385688       -0.0296628188
 C          4.5261424581        0.0504126696       -0.1093257459
 C          5.1498826962       -0.0925085155       -1.3376145866
 C          4.3951829891       -0.3945035124       -2.4613255050
 C          3.0214929891       -0.5491481069       -2.3630699121
 C          2.3879409861       -0.4038479702       -1.1376844383
 H          1.3173798688       -0.5107341503       -1.0531955382
 H          2.4258496047       -0.7824106128       -3.2309718529
 H          4.8789558759       -0.5089171461       -3.4186134532
 H          6.2182830424        0.0299867562       -1.4140126802
 H          5.0694206316        0.2858370680        0.7916537344
 H          2.9500686389       -2.0573786573        2.1537138521
 H          2.5984859173       -3.7626928602        0.5380755830
 H          0.9727417395       -4.9274144034       -0.9098857819
 H         -1.3192488888       -4.0814981862       -1.1378698643
 C         -2.4290947832       -1.8776295232        0.1274593781
 H         -2.9793638789       -2.1384262528        1.0439893002
 C         -3.2054156255       -2.3874038582       -1.0705978239
 C         -4.0199185238       -3.6413044664       -0.9707553837
 C         -4.7013311099       -2.3089892046       -1.0465041443
 H         -5.2192590499       -2.0423111504       -1.9554832548
 H         -5.1597958946       -1.9131442923       -0.1515954825
 H         -4.0281589942       -4.1590055537       -0.0234550133
 H         -4.0752097198       -4.2909824161       -1.8312490416
 H         -2.7086245501       -2.1701326525       -2.0093123277
 O         -0.8556675246       -0.3329829652       -1.7056883168
