  62
        -98.93803658
 C         -2.6221346098       -1.0088446695        0.5193234095
 C         -2.8544221896        0.1961449303        1.2338209299
 C         -4.1204916495        0.8827713206        0.9621356601
 C         -4.9896795196        0.3497768811        0.0845614799
 C         -6.3432190895        0.9022683714       -0.2715377499
 C         -6.3124294393        1.9939404417       -1.3496697496
 C         -5.7548137790        3.3422463115       -0.8923411692
 H         -5.9920135489        4.0685213318       -1.6722639089
 H         -6.2708233490        3.6585809313        0.0147028209
 C         -4.2382268190        3.3507639211       -0.6545714192
 H         -3.7882898092        2.4798498812       -1.1372609194
 H         -3.8009606189        4.2355146712       -1.1228679789
 C         -3.8266927390        3.3674201406        0.8176771808
 H         -2.7353316190        3.3337546504        0.8674322308
 H         -4.1568993688        4.3005058906        1.2796329611
 C         -4.3752238492        2.1946491305        1.6410013305
 H         -5.4417306292        2.3282040906        1.8214289705
 H         -3.8559490292        2.1776649601        2.6022894805
 H         -5.7321281894        1.6291329919       -2.2003540597
 H         -7.3398163993        2.1454295820       -1.6888062795
 H         -6.8269028094        1.2895545812        0.6257624902
 H         -6.9309000996        0.0625998016       -0.6488643301
 O         -4.7336489898       -0.8056400888       -0.5802971904
 C         -3.5446246999       -1.5014463891       -0.4044196806
 O         -3.4618667801       -2.5205919989       -1.1172538809
 O         -2.0418323995        0.6673462699        2.0743034600
 C         -1.3147538000       -1.7264191698        0.8097090693
 C         -0.2691164899       -1.3981944297       -0.2302529106
 C         -0.3874168500       -1.8351987693       -1.5453213607
 C          0.5899475700       -1.5272307892       -2.4742677607
 C          1.6999832202       -0.7825841395       -2.1159926405
 C          1.8275474303       -0.3404987099       -0.8062620903
 C          0.8467246702       -0.6548658100        0.1267982596
 H          0.9417640703       -0.2998590404        1.1443526897
 N          2.9427482804        0.4329045597       -0.4382215401
 S          4.4492821003       -0.0565973704       -1.0285025803
 O          4.6128197004        0.4770063100       -2.3576160401
 O          4.5874229201       -1.4899351104       -0.9025227807
 C          5.5504790105        0.7758986791        0.0979977699
 C          5.8734443907        2.0987034791       -0.1380259397
 C          6.7134786709        2.7508662887        0.7504937005
 C          7.2127144108        2.0741255083        1.8535466503
 C          6.8802878105        0.7463061083        2.0764137899
 C          6.0397412004        0.0882381187        1.1924850097
 H          5.7629195202       -0.9460649713        1.3205600094
 H          7.2724391904        0.2220972579        2.9330526398
 H          7.8677651409        2.5836418979        2.5424414805
 H          6.9768913811        3.7822001687        0.5797195608
 H          5.4698226308        2.5810118194       -1.0129375595
 H          2.9752980705        0.6093314794        0.5565640599
 H          2.4705034002       -0.5434797395       -2.8314798204
 H          0.4873836300       -1.8720999089       -3.4925583508
 H         -1.2575724801       -2.4039999391       -1.8347383309
 H         -0.9718403699       -1.3088748102        1.7662803194
 C         -1.4670212402       -3.2257604199        0.9730997189
 C         -0.4041331304       -3.9841827603        1.7079188286
 C         -1.7534186603       -3.7900518302        2.3307725687
 H         -2.4163345105       -4.6388344601        2.4052004685
 H         -1.8405259102       -3.0950862504        3.1533024889
 H         -0.1359308406       -4.9675468902        1.3536462283
 H          0.4257134697       -3.4211326305        2.1078544088
 H         -1.9360823703       -3.7084960995        0.1263193887
