  62
        -98.94340434
 C         -2.4948199898       -1.1265732276       -0.0011555519
 C         -3.4685349676       -0.6078728161        0.8946798904
 C         -4.4369546058        0.3420789079        0.3350278583
 C         -4.3669679438        0.6540871018       -0.9715318658
 C         -5.2537787832        1.6443476432       -1.6676349127
 C         -4.6434369006        3.0526852928       -1.6400487461
 C         -4.1732240560        3.4953613468       -0.2543605624
 H         -3.3355928312        2.8663148458        0.0560123929
 H         -3.7909818787        4.5138482310       -0.3510116743
 C         -5.2619692812        3.4583217298        0.8272286874
 H         -5.2084898293        4.3807024597        1.4092589500
 H         -6.2471585548        3.4269018724        0.3605185920
 C         -5.1331516586        2.2992157022        1.8173515736
 H         -4.1166803697        2.2704927081        2.2178949825
 H         -5.8096333815        2.4906724845        2.6545148614
 C         -5.4724741094        0.9091735640        1.2647510855
 H         -5.5248108975        0.2185985973        2.1114477004
 H         -6.4510102150        0.9341809482        0.7808644644
 H         -3.7845632325        3.0709863966       -2.3150040472
 H         -5.3865235785        3.7578007303       -2.0169131212
 H         -5.3728083994        1.3293821708       -2.7057200241
 H         -6.2296322416        1.6503410516       -1.1859128664
 O         -3.4360539321        0.1263938689       -1.8035944904
 C         -2.4747118924       -0.7644070275       -1.3478888879
 O         -1.6908835309       -1.1395633138       -2.2443821261
 O         -3.5272649709       -0.9345433933        2.1098754268
 C         -1.4960533282       -2.1116499910        0.5837206369
 C         -0.1593464077       -1.4633134261        0.8574159701
 C          0.3268371630       -1.3581340768        2.1554650635
 C          1.5609376304       -0.7820448689        2.4012954508
 C          2.3320661794       -0.2951141500        1.3612235718
 C          1.8538729804       -0.3916636584        0.0608305915
 C          0.6201722557       -0.9783896523       -0.1832486292
 H          0.2508793465       -1.0454226514       -1.1960171427
 N          2.6138634471        0.1258558824       -1.0026898268
 S          4.2245719662       -0.3287494216       -1.1245945146
 O          4.5664427708       -0.1535603676       -2.5192308248
 O          4.4488334815       -1.6434882426       -0.5689452166
 C          5.0869453369        0.8948944833       -0.1599592533
 C          4.8695250716        2.2270769347       -0.4527538155
 C          5.5419794280        3.1914233611        0.2807075052
 C          6.4181148384        2.8097087922        1.2860725253
 C          6.6280855780        1.4680851099        1.5654320271
 C          5.9574710283        0.4982843047        0.8362558106
 H          6.0837256728       -0.5563882611        1.0219944938
 H          7.3092469455        1.1734757467        2.3474855241
 H          6.9398352121        3.5628060536        1.8552451076
 H          5.3807247590        4.2357654572        0.0667887067
 H          4.1822790873        2.4812827458       -1.2425701835
 H          2.1510796904        0.0481297004       -1.8972315574
 H          3.2932799490        0.1558953013        1.5463880508
 H          1.9257871952       -0.7083505447        3.4143486311
 H         -0.2751665381       -1.7236669448        2.9746372826
 H         -1.9253604519       -2.4075877243        1.5504331679
 C         -1.3229382290       -3.3590757264       -0.2615209034
 C         -0.8106181848       -4.6095697033        0.3849517813
 C         -2.2423463575       -4.5224939689       -0.0498242598
 H         -2.5584551566       -5.0917463855       -0.9110767840
 H         -3.0018068570       -4.4264116644        0.7124230106
 H         -0.1380955168       -5.2402491207       -0.1761156740
 H         -0.5994930266       -4.5747901933        1.4429943075
 H         -1.0102463520       -3.1535210637       -1.2771835840
