  62
        -98.94472230
 C         -2.0188301628       -1.0100236548       -0.4202049361
 C         -3.0936095120       -1.2403258206        0.4773320307
 C         -4.3639665082       -0.5796232690        0.1547673025
 C         -4.4426888443        0.1888299651       -0.9467320465
 C         -5.6551619702        0.9679154471       -1.3647281275
 C         -5.6300900789        2.3884073267       -0.7831733367
 C         -5.3358212973        2.4377582284        0.7162332242
 H         -4.3144969742        2.0909720812        0.8909920148
 H         -5.3739432213        3.4861439473        1.0202465174
 C         -6.3046033597        1.6190169241        1.5809857489
 H         -6.5936172755        2.2194954531        2.4461099687
 H         -7.2135592819        1.4049304833        1.0175532751
 C         -5.7228768348        0.3111899328        2.1209224467
 H         -4.7634442399        0.5100055644        2.6051859773
 H         -6.4026735406       -0.0724231172        2.8863292896
 C         -5.5196990708       -0.8048041492        1.0884356004
 H         -6.4436210908       -0.9601695723        0.5277657374
 H         -5.2895143777       -1.7243046802        1.6343739167
 H         -4.8579318583        2.9615671683       -1.3017748879
 H         -6.5941747286        2.8599007901       -0.9824184600
 H         -6.5494788442        0.4439709944       -1.0329816366
 H         -5.6649739386        1.0312854522       -2.4542013927
 O         -3.3968797635        0.3799822373       -1.7884148641
 C         -2.1586160198       -0.1985996940       -1.5461217965
 O         -1.2999669668        0.0820547241       -2.4050697604
 O         -2.9936169648       -1.9696606313        1.4993694055
 C         -0.6842198531       -1.6606992076       -0.0933313036
 C          0.2671936672       -0.6047797559        0.4132954419
 C          0.3466233006       -0.3398729446        1.7768798372
 C          1.1974704020        0.6383474924        2.2590607558
 C          1.9855905943        1.3731860561        1.3912491781
 C          1.9059468180        1.1214612311        0.0277741995
 C          1.0611347537        0.1313377769       -0.4538802727
 H          0.9929716623       -0.0419364817       -1.5163618831
 N          2.7141136764        1.8600353453       -0.8572190915
 S          4.3529283853        1.8801461330       -0.5115661155
 O          4.6225467917        2.8846709721        0.4869864516
 O          5.0178386710        2.0613336553       -1.7829195151
 C          4.6882377603        0.2593157565        0.1562349931
 C          5.0798409107        0.1226242779        1.4720996708
 C          5.2745571925       -1.1502564812        1.9843337830
 C          5.0685489013       -2.2580991301        1.1774547682
 C          4.6777936201       -2.1040550581       -0.1439601540
 C          4.4832559281       -0.8343564293       -0.6617155023
 H          4.1827399302       -0.6800307711       -1.6856977043
 H          4.5177747668       -2.9678024232       -0.7690711985
 H          5.2130468338       -3.2486997098        1.5788804698
 H          5.5796574165       -1.2733575881        3.0109714254
 H          5.2237647563        1.0107859383        2.0653125366
 H          2.5483359704        1.6391700589       -1.8284138675
 H          2.6546819430        2.1410285022        1.7449550306
 H          1.2491972348        0.8306071351        3.3198164241
 H         -0.2762397744       -0.9052102220        2.4554513090
 H         -0.8974461826       -2.3458520935        0.7378450512
 C         -0.1173174493       -2.4605468948       -1.2489291922
 C          1.0555290703       -3.3603377797       -1.0010962254
 C         -0.2964658324       -3.9475969980       -1.2705391466
 H         -0.4707648902       -4.4308381884       -2.2203364750
 H         -0.8315677697       -4.3989065405       -0.4480004861
 H          1.8107382377       -3.4414166897       -1.7675886032
 H          1.4406900687       -3.4082792838        0.0061054288
 H         -0.1660974722       -1.9443396570       -2.1992614943
