  62
        -98.94047168
 C         -1.0886298869       -1.5639368359        0.6160517771
 C         -2.0669894587       -1.4055751200       -0.3942502684
 C         -3.1002704515       -0.3822512930       -0.1506362093
 C         -3.0490189272        0.3651568008        0.9664415046
 C         -3.9922165946        1.4329109372        1.4780403826
 C         -4.9092727110        2.1869283785        0.5164712655
 C         -4.1951778896        3.0037757193       -0.5579670299
 H         -4.9593892839        3.4716689912       -1.1828757031
 H         -3.6285899083        3.8022127479       -0.0725393468
 C         -3.2357129794        2.2223183957       -1.4538086184
 H         -2.3633822220        1.9062267219       -0.8789603928
 H         -2.8780495076        2.9013580931       -2.2322146962
 C         -3.8344701683        0.9985361450       -2.1459933480
 H         -4.7537331138        1.2783977860       -2.6637668131
 H         -3.1138462034        0.6667056627       -2.8976322109
 C         -4.1289516435       -0.2049000151       -1.2293616260
 H         -5.1238659565       -0.1416152789       -0.7937804846
 H         -4.0948957729       -1.1112324660       -1.8402413176
 H         -5.4911597690        2.8816789126        1.1285906629
 H         -5.6176557300        1.5050527824        0.0553408693
 H         -4.6162652868        0.9485343875        2.2376943559
 H         -3.3646410760        2.1536066725        2.0112464636
 O         -2.0694959604        0.1931082203        1.9021277832
 C         -1.0807620842       -0.7624424051        1.7576317946
 O         -0.2646503783       -0.7974011687        2.7019099705
 H          2.0782242993       -0.9270759314        0.8741535500
 C          2.0070093586       -1.2272465668       -0.1607213204
 C          1.0115907536       -2.1161254373       -0.5494147361
 C          0.9431652048       -2.5046483554       -1.8817551124
 C          1.8516683959       -2.0075282723       -2.7993499348
 C          2.8396384483       -1.1214268983       -2.4108742055
 C          2.9202371286       -0.7298137165       -1.0782479651
 N          3.9396669115        0.1360807994       -0.6596814183
 S          3.7525646834        1.2146708257        0.5969048052
 O          4.8819010543        2.1086517854        0.4524510689
 O          3.6593139034        0.5131238129        1.8511052517
 C          2.2533812735        2.1164810753        0.2534180959
 C          1.1281941274        1.9307451184        1.0287609749
 C         -0.0097794158        2.6684638552        0.7403953880
 C         -0.0070323965        3.5672105170       -0.3140697990
 C          1.1311200471        3.7380846662       -1.0878050384
 C          2.2727716619        3.0089757095       -0.8017001076
 H          3.1840176418        3.1324076733       -1.3639405653
 H          1.1306649875        4.4389988571       -1.9068206843
 H         -0.8955913828        4.1386822108       -0.5313432334
 H         -0.8907063528        2.5284557950        1.3471102132
 H          1.1474594402        1.2212055078        1.8419725055
 H          4.5095642621        0.5155909849       -1.4007039739
 H          3.5502740867       -0.7398435783       -3.1278765295
 H          1.7878654478       -2.3133572131       -3.8325688743
 H          0.1656566928       -3.1782182469       -2.2007569265
 C          0.0284164757       -2.5889758637        0.4946317491
 H          0.5457634637       -2.5813424577        1.4641097196
 C         -0.4993644677       -3.9857929053        0.2403752329
 C          0.4104125800       -5.1570730873        0.4511249004
 C         -0.7207683774       -4.9055862703        1.4014190123
 H         -1.5724272647       -5.5689508464        1.3780863271
 H         -0.4863496326       -4.5323013758        2.3881293916
 H          1.4140575397       -4.9522691715        0.7931283128
 H          0.3380352354       -5.9960392388       -0.2237364364
 H         -1.2131649472       -4.0373707913       -0.5712922291
 O         -2.1044508485       -2.0892487933       -1.4490660366
