  62
        -98.94093887
 C          2.3024687618        0.8544069311       -0.1700726315
 C          3.5960921799        1.2185066194        0.2749691776
 C          4.7072339760        0.4454651577       -0.2900578843
 C          4.4558452816       -0.5242152999       -1.1884923016
 C          5.4842386006       -1.3833658780       -1.8732309551
 C          5.9275407972       -2.6015964532       -1.0513356976
 C          6.8239729083       -2.2865545234        0.1468715130
 H          7.6622987183       -1.6709512973       -0.1804468601
 H          7.2337633888       -3.2355356567        0.4982847576
 C          6.1020944928       -1.5984281613        1.3138378624
 H          6.3838970346       -2.0813916774        2.2522120675
 H          5.0229314449       -1.7260957642        1.2000048251
 C          6.4117119069       -0.1085274811        1.4600623552
 H          7.4677888612        0.0241031272        1.7048326122
 H          5.8212541398        0.2845187947        2.2915968602
 C          6.0903386916        0.7280191381        0.2145576274
 H          6.8265085863        0.5390937758       -0.5662298041
 H          6.1335619732        1.7844475334        0.4901815032
 H          6.4757329242       -3.2655632927       -1.7237104204
 H          5.0369328058       -3.1351326176       -0.7110126901
 H          6.3548163916       -0.7789521450       -2.1293245292
 H          5.0239372990       -1.7403534008       -2.7970282871
 O          3.1975071169       -0.8315768032       -1.6045685614
 C          2.0904554855       -0.1691360485       -1.0930757926
 O          0.9994303777       -0.5765250536       -1.5380830574
 O          3.8100481108        2.1418629203        1.1051989155
 C          1.1002992085        1.5988553543        0.3815966100
 C          0.1577945351        0.6279483770        1.0481574761
 C          0.6618341999       -0.2278875368        2.0249381006
 C         -0.1570393734       -1.1495254712        2.6461929495
 C         -1.4946835363       -1.2401887289        2.3029059555
 C         -2.0124601293       -0.3808550791        1.3415997454
 C         -1.1887818379        0.5550390241        0.7298072798
 H         -1.6110614962        1.2050867249       -0.0163876032
 N         -3.3841166196       -0.4243821147        1.0240855773
 S         -3.9106548487       -0.3111318404       -0.5759550610
 O         -3.4418910592       -1.4441197606       -1.3443165217
 O         -3.6003963759        0.9958532803       -1.0940621352
 C         -5.6697139282       -0.4413469290       -0.3077194754
 C         -6.3295997805        0.6502436526        0.2244692935
 C         -7.6917904485        0.5599474879        0.4610168610
 C         -8.3683231397       -0.6139623877        0.1632366568
 C         -7.6932301845       -1.7002580333       -0.3721063090
 C         -6.3298691053       -1.6167586818       -0.6096075698
 H         -5.7646472541       -2.4327486172       -1.0307296110
 H         -8.2221098757       -2.6103284630       -0.6054239405
 H         -9.4289350238       -0.6814785584        0.3472359640
 H         -8.2205490905        1.4032310547        0.8752127090
 H         -5.7637556259        1.5433277746        0.4318426722
 H         -3.8405915505       -1.2168888081        1.4582214871
 H         -2.1327649392       -1.9700152403        2.7784053208
 H          0.2489706959       -1.8105943454        3.3973003054
 H          1.7106775388       -0.1644228065        2.2824917522
 H          1.5027840029        2.2743294983        1.1515501251
 C          0.4502471628        2.4315974687       -0.7023630881
 C         -0.3116598159        3.6714611414       -0.3448988041
 C          1.0183600965        3.7794663083       -1.0265136242
 H          1.0473935194        4.0907488640       -2.0599782352
 H          1.8664265836        4.1112233842       -0.4453798074
 H         -1.2024574261        3.9043516510       -0.9087730873
 H         -0.3683955829        3.9370831341        0.6998846786
 H          0.0856441263        1.8307302516       -1.5293809336
