  62
        -98.94433966
 C         -2.2503882210        1.0979246058       -0.2716436915
 C         -2.3783841889       -0.0322913200        0.5717043669
 C         -3.2632115913       -1.0984707017        0.0825315395
 C         -3.8569382660       -0.9870279377       -1.1187372061
 C         -4.7574278993       -2.0047093924       -1.7644652027
 C         -6.2202053232       -1.9263897034       -1.3059656374
 C         -6.4852194876       -2.4279217840        0.1141256906
 H         -7.5673809234       -2.5222495726        0.2236173896
 H         -6.0581029435       -3.4243519731        0.2318731297
 C         -5.9560951117       -1.5047480032        1.2204884610
 H         -5.7517853682       -0.5160774988        0.8032882154
 H         -6.7242418167       -1.3768794625        1.9863811172
 C         -4.6974406407       -2.0141062836        1.9228102973
 H         -4.9237442211       -2.9397854971        2.4566887969
 H         -4.3890091539       -1.2673996648        2.6588938790
 C         -3.5117111728       -2.2707916394        0.9835605545
 H         -3.6850004080       -3.1718533600        0.3953583297
 H         -2.6156088655       -2.4197379075        1.5915035576
 H         -6.8101651856       -2.5316194717       -1.9980082345
 H         -6.5592263348       -0.8919277557       -1.3966398278
 H         -4.7222523855       -1.8113371779       -2.8388120047
 H         -4.3689986349       -3.0068811059       -1.5799399425
 O         -3.6807269881        0.0978659562       -1.9178939150
 C         -2.8949051860        1.1615801604       -1.5120513580
 O         -2.8474710503        2.0997383410       -2.3323568218
 O         -1.7968233149       -0.1716994535        1.6816581231
 C         -1.3860683849        2.3028288544        0.0744915061
 C          0.0632636465        1.9765434196       -0.1963220888
 C          0.7100023221        2.4998282340       -1.3102803420
 C          2.0224225773        2.1599622469       -1.5871877521
 C          2.7138614618        1.2887335127       -0.7641557770
 C          2.0716986673        0.7508319756        0.3430482856
 C          0.7615652654        1.1055590331        0.6277457442
 H          0.2614441387        0.6642578893        1.4767573189
 N          2.7594001458       -0.1541597344        1.1754761055
 S          3.4123586145       -1.5118404511        0.4290127200
 O          2.6778700901       -1.8671188198       -0.7642798201
 O          3.4888413640       -2.5206853018        1.4634034491
 C          5.0644122916       -1.0011931747        0.0016302985
 C          5.8846204954       -0.5401086174        1.0129044455
 C          7.1749029886       -0.1438741197        0.6995445205
 C          7.6219501229       -0.2180776526       -0.6114256293
 C          6.7876236227       -0.6870258408       -1.6145325267
 C          5.4950374210       -1.0836249726       -1.3079505327
 H          4.8082620947       -1.4485635247       -2.0551166401
 H          7.1365770357       -0.7445143213       -2.6330581012
 H          8.6267467723        0.0907593656       -0.8529832698
 H          7.8267465256        0.2208979470        1.4768962289
 H          5.4991934507       -0.5029795187        2.0180418589
 H          2.2139541900       -0.4347302500        1.9790813583
 H          3.7337651252        1.0138225862       -0.9787583676
 H          2.5114011116        2.5746554000       -2.4555229457
 H          0.1664214426        3.1601370492       -1.9707497021
 H         -1.6872137251        3.0925411756       -0.6264050699
 C         -1.6076335050        2.8060526526        1.4868717457
 C         -1.1863900595        4.2014592110        1.8326289002
 C         -2.6423575539        3.8607631412        1.7328447496
 H         -3.2255125804        3.8079032299        2.6400264215
 H         -3.1955650621        4.2270455687        0.8800510226
 H         -0.7672216443        4.3854820007        2.8098119506
 H         -0.7518226505        4.8004137658        1.0466914911
 H         -1.4933199861        2.0419131557        2.2438908745
