  62
        -98.93262292
 C          1.5979679062        0.1525554053        0.6485505712
 C          2.7731901955        0.9147119032        0.4567783521
 C          3.9837288173        0.1749655024        0.0407812204
 C          3.9170861516       -1.1563268974       -0.1325489364
 C          5.0019105533       -2.1133987691       -0.5578476924
 C          6.3796495717       -1.9299302422        0.0971847127
 C          7.4426378809       -1.3921200324       -0.8623044967
 H          8.4279778653       -1.6834779475       -0.4915865070
 H          7.3065065541       -1.8699452385       -1.8347431461
 C          7.4470913856        0.1249857421       -1.0415668995
 H          7.8303648492        0.5949293246       -0.1331526518
 H          8.1456776830        0.3605717508       -1.8479971160
 C          6.0893652214        0.7489998047       -1.3705855935
 H          5.5454959198        0.1289931045       -2.0822890956
 H          6.2735790600        1.7078120813       -1.8600799862
 C          5.2190043509        1.0165037303       -0.1335321893
 H          5.8264091433        0.9418991198        0.7731220467
 H          4.8494749697        2.0462284015       -0.1621080570
 H          6.2930600734       -1.2823820667        0.9682931079
 H          6.7116504698       -2.9065933575        0.4531148377
 H          4.6096069286       -3.1058387979       -0.3246742666
 H          5.0995480984       -2.0655287760       -1.6452540235
 O          2.7572403637       -1.8506315799        0.0474719548
 C          1.5879419568       -1.2293010207        0.4351448931
 O          0.6173277528       -2.0018963502        0.5638547517
 H         -2.1776728946        0.0618867089        0.2019822446
 C         -1.7641551005        0.8815814663       -0.3655744785
 C         -0.4933975614        1.3504590726       -0.0666539490
 C          0.0322343696        2.3929936537       -0.8221391360
 C         -0.7046110396        2.9478189365       -1.8521513732
 C         -1.9823853789        2.4950700850       -2.1308426281
 C         -2.5177328907        1.4559741098       -1.3793790623
 N         -3.8061551181        0.9688312692       -1.6382306925
 S         -4.7961159016        0.4948175474       -0.3751014313
 O         -6.1366972995        0.5967682875       -0.9111736223
 O         -4.5308900526        1.2549937306        0.8235372426
 C         -4.4084916763       -1.2231578111       -0.1211605592
 C         -4.0999727859       -1.6752533737        1.1460662486
 C         -3.8238879513       -3.0206602409        1.3300831061
 C         -3.8625198809       -3.8861555232        0.2482502140
 C         -4.1778534025       -3.4171843157       -1.0180674234
 C         -4.4555719424       -2.0733896086       -1.2079234469
 H         -4.7080736512       -1.6732013520       -2.1756968220
 H         -4.2056557594       -4.0947492608       -1.8562943893
 H         -3.6435301677       -4.9321160226        0.3942074640
 H         -3.5751618616       -3.3864750952        2.3134689609
 H         -4.0753831816       -0.9669776107        1.9597666860
 H         -4.3161435047        1.4674830705       -2.3525832752
 H         -2.5621933786        2.9410542057       -2.9248581059
 H         -0.2851890476        3.7529375945       -2.4365979887
 H          1.0208525240        2.7602616285       -0.5944918458
 C          0.2682088124        0.7430602480        1.0873153931
 H         -0.3222170685       -0.1072009590        1.4553945928
 C          0.3902799093        1.7570406085        2.2103552114
 C         -0.8459142341        2.1425639421        2.9641841980
 C          0.2093273234        1.3104896833        3.6280551438
 H          0.8189310209        1.7663854387        4.3938462596
 H          0.0008401872        0.2645280823        3.8010184387
 H         -1.7760394222        1.6708141739        2.6812026535
 H         -0.9587198780        3.1706036755        3.2733087192
 H          1.1232252510        2.5284853211        2.0158202066
 O          2.8413295912        2.1634935564        0.6147977352
