  62
        -98.94626345
 C          1.5590909195        1.4646404435       -0.0370917754
 C          2.4990903634        0.9466419834        0.8838962909
 C          3.2258358912       -0.2546788972        0.4524132134
 C          2.9571243494       -0.7883280445       -0.7537537510
 C          3.6291760660       -2.0074257942       -1.3157881701
 C          2.8617401340       -3.2914499912       -0.9747013672
 C          2.4640952519       -3.4003812443        0.4967295951
 H          1.7492558772       -2.6082692746        0.7321473479
 H          1.9433538591       -4.3515190952        0.6259990834
 C          3.6436823430       -3.3321620343        1.4770520717
 H          3.5168366612       -4.1104893688        2.2326243273
 H          4.5752988378       -3.5420639093        0.9501691743
 C          3.7766459298       -2.0047685397        2.2258003001
 H          4.4943700583       -2.1445518070        3.0387214555
 H          2.8178067327       -1.7420401526        2.6805055208
 C          4.2591552194       -0.8116841193        1.3908540189
 H          4.5048190492       -0.0000289216        2.0821640873
 H          5.1670336820       -1.0856198641        0.8494043615
 H          3.4810189274       -4.1470877690       -1.2497623300
 H          1.9528196592       -3.3176396926       -1.5768981512
 H          4.6433831433       -2.0633069573       -0.9243305567
 H          3.6762553051       -1.9005728511       -2.4007619600
 O          2.0175718019       -0.2860183280       -1.5941557544
 C          1.2952869858        0.8518265141       -1.2627812224
 O          0.4720865820        1.2087682414       -2.1235038353
 O          2.7240262476        1.4680527712        2.0106080042
 C          0.8050006310        2.7335802317        0.3165748560
 C         -0.6817139511        2.4811517683        0.3121778009
 C         -1.5963667337        3.3031648963       -0.3318202553
 C         -2.9489643212        3.0067197192       -0.3039527377
 C         -3.4193797996        1.8951428436        0.3697278294
 C         -2.5125916102        1.0681258053        1.0219615287
 C         -1.1597160068        1.3666546345        0.9921040706
 H         -0.4553774855        0.7205326636        1.5022219969
 N         -2.9819723010       -0.0692047303        1.7140147921
 S         -3.7489751221       -1.2567619629        0.8158892724
 O         -4.9422231930       -0.7010352648        0.2315107503
 O         -3.9361360904       -2.3630655598        1.7265045879
 C         -2.5918079253       -1.7122132638       -0.4618029779
 C         -1.8447963839       -2.8623015854       -0.3027344200
 C         -0.9198263386       -3.1998465859       -1.2767817925
 C         -0.7451840649       -2.3746960189       -2.3774457332
 C         -1.4970947137       -1.2190352925       -2.5191332724
 C         -2.4338750983       -0.8835560673       -1.5549531174
 H         -3.0374700588        0.0051224663       -1.6402523416
 H         -1.3439770503       -0.5669840029       -3.3632828352
 H         -0.0178367064       -2.6278896272       -3.1332150658
 H         -0.3392493772       -4.1027267990       -1.1716235594
 H         -2.0112130929       -3.4732153511        0.5701204800
 H         -2.2733001911       -0.5017198395        2.2901170271
 H         -4.4670474873        1.6424508265        0.3865902005
 H         -3.6474681240        3.6523916589       -0.8143426946
 H         -1.2518511725        4.1747882892       -0.8631339531
 H          1.1065804104        2.9758745165        1.3467822656
 C          1.2324971680        3.8668828402       -0.5925578500
 C          1.1788583200        5.2846133180       -0.1094317469
 C          2.5011385992        4.6017562336       -0.2836308271
 H          3.1357887393        4.9033044194       -1.1033826720
 H          3.0449126076        4.3022360572        0.6005333105
 H          0.9077840235        6.0594688615       -0.8105945741
 H          0.8268082300        5.4573840530        0.8963583974
 H          1.0105634125        3.6704605276       -1.6354753001
