  62
        -98.94850409
 C         -1.2416633034       -1.5164428360        0.4994602358
 C         -2.1642347860       -1.1848413990       -0.5217444520
 C         -3.2059460082       -0.2163278551       -0.1524213284
 C         -3.2302973345        0.2866791180        1.0949787764
 C         -4.2100488534        1.3106094332        1.5889190536
 C         -3.6668626787        2.7354057981        1.4150328913
 C         -3.1156271794        3.0276495099        0.0189622520
 H         -2.8114410977        4.0771923002        0.0065111465
 H         -2.2056451780        2.4425416953       -0.1392626951
 C         -4.1062138593        2.7703692319       -1.1252641401
 H         -4.0449819301        3.6033656543       -1.8289613163
 H         -5.1246023331        2.7497073368       -0.7345150925
 C         -3.8428640262        1.4934355738       -1.9258868759
 H         -2.7899234768        1.4597088994       -2.2192957252
 H         -4.4379818385        1.5384665353       -2.8421409397
 C         -4.1887676263        0.1772121413       -1.2180586265
 H         -5.2016870379        0.2303702397       -0.8138263233
 H         -4.1560665681       -0.6211483766       -1.9653154701
 H         -2.8585629880        2.8908467857        2.1336091237
 H         -4.4686573381        3.4398636783        1.6460270048
 H         -4.3907969987        1.1290847992        2.6500681155
 H         -5.1470283547        1.1996149543        1.0465372202
 O         -2.3302905128       -0.0590903056        2.0503561235
 C         -1.2950432153       -0.9347909346        1.7649859944
 O         -0.4987719993       -1.1162195344        2.7099990213
 O         -2.1200898824       -1.6686950151       -1.6831800520
 C         -0.0881335342       -2.4547742125        0.2000460999
 C          0.7933612139       -1.8757627142       -0.8822511709
 C          1.4780483261       -2.6550434995       -1.8070232614
 C          2.2929069746       -2.0592841572       -2.7544519256
 C          2.4603371683       -0.6863671148       -2.7916248727
 C          1.7820103608        0.1008934447       -1.8684996508
 C          0.9599824774       -0.4996349008       -0.9296877898
 H          0.4176360150        0.1251342456       -0.2379859284
 N          1.9070806842        1.4980460185       -1.8622334273
 S          1.8675657286        2.3269124224       -0.4107908887
 O          0.5278153359        2.3611054103        0.1186325180
 O          2.4550878031        3.6125229006       -0.7231884994
 C          2.9649949424        1.4118551657        0.6574869215
 C          4.3161921241        1.4756515934        0.3723008069
 C          5.2027659709        0.7393778277        1.1395067783
 C          4.7255729464       -0.0531161035        2.1731464788
 C          3.3689840645       -0.1023681086        2.4506528951
 C          2.4766634660        0.6364880684        1.6885044208
 H          1.4172395904        0.6069504328        1.8913727115
 H          2.9859280173       -0.7145798188        3.2517707376
 H          5.4132637508       -0.6330489387        2.7681545798
 H          6.2591937970        0.7818821105        0.9292112049
 H          4.6479452457        2.1122944506       -0.4317682724
 H          2.5957242292        1.8728148310       -2.4973380813
 H          3.0973604437       -0.2265808715       -3.5312736380
 H          2.8118526990       -2.6749960453       -3.4731894671
 H          1.3667862743       -3.7269330677       -1.7907369752
 H          0.5095468025       -2.5055592003        1.1232189817
 C         -0.5979608269       -3.8439882674       -0.1261353949
 C          0.1954034687       -5.0543478148        0.2626797255
 C         -1.0686937113       -4.7205077338        0.9943233176
 H         -1.9397719923       -5.3381541369        0.8355482201
 H         -0.9923674420       -4.3244352856        1.9968653440
 H          0.1907782962       -5.9076844988       -0.3986925673
 H          1.1314066970       -4.8969388459        0.7770932743
 H         -1.1585664781       -3.8721693071       -1.0531283602
