  62
        -98.94074114
 C          1.1168005838        1.4285320744        0.1070348541
 C          1.6303715145        0.5500188078        1.0879715097
 C          2.5153682869       -0.5347519517        0.6244573997
 C          2.7539030106       -0.6515634710       -0.6951600168
 C          3.6707776029       -1.6188848567       -1.3965154025
 C          5.1554989353       -1.2563060805       -1.2295584133
 C          5.5697985788       -0.8659713970        0.1865058066
 H          6.6123821307       -0.5393845883        0.1486687873
 H          4.9751795026       -0.0105365056        0.5118545607
 C          5.4672344865       -1.9804263011        1.2251263027
 H          5.8861197254       -1.5939809612        2.1578703921
 H          6.0855367901       -2.8237137657        0.9094522565
 C          4.0550075103       -2.4929877653        1.5163245760
 H          4.1058403276       -3.0823196922        2.4366053528
 H          3.7152125859       -3.1692554999        0.7365562629
 C          3.0202982343       -1.3979376949        1.7554649281
 H          2.1258611331       -1.8531689900        2.1985199459
 H          3.3982305431       -0.7095375122        2.5200230051
 H          5.3720887068       -0.4085762888       -1.8840994641
 H          5.7562270639       -2.1031321509       -1.5658206034
 H          3.4259447758       -1.5699910998       -2.4597565590
 H          3.4827152058       -2.6332433028       -1.0573022857
 O          2.1788972494        0.1764231429       -1.6114940632
 C          1.3374415526        1.2124844454       -1.2533071276
 O          0.8697568029        1.8469116033       -2.2159518664
 O          1.3701048482        0.6677526833        2.3177503001
 C          0.2281567040        2.5764165160        0.5602240266
 C         -1.1993110562        2.2067645032        0.2450213951
 C         -1.9486884642        2.7889775586       -0.7677425406
 C         -3.2300270853        2.3367136185       -1.0374034509
 C         -3.7889660874        1.3035569777       -0.3069632153
 C         -3.0461496228        0.7188026726        0.7107089025
 C         -1.7657432059        1.1711722038        0.9798525468
 H         -1.1825814343        0.7079472003        1.7655686329
 N         -3.5960004477       -0.3574301984        1.4466916769
 S         -3.8412691082       -1.7496267148        0.5464268722
 O         -4.9604346848       -1.5425475948       -0.3358284390
 O         -3.9746677114       -2.8204045772        1.5076580978
 C         -2.3433248172       -1.9468071095       -0.4020610993
 C         -2.2759449149       -1.4254357049       -1.6780427752
 C         -1.0912814133       -1.5426570303       -2.3865975019
 C         -0.0014888330       -2.1746410412       -1.8096337607
 C         -0.0802821022       -2.6809627817       -0.5215080592
 C         -1.2606572366       -2.5626878947        0.1931932074
 H         -1.3643008422       -2.9531565830        1.1932544110
 H          0.7738305131       -3.1618677832       -0.0721621807
 H          0.9158964212       -2.2682917080       -2.3682652316
 H         -1.0170377404       -1.1345194267       -3.3817584878
 H         -3.1473548323       -0.9483818944       -2.0955463314
 H         -3.0444490623       -0.5882752462        2.2620930786
 H         -4.7777991543        0.9288733338       -0.5167002075
 H         -3.8004563415        2.7946345741       -1.8311826518
 H         -1.5237630884        3.5843436749       -1.3571003421
 H          0.3313474709        2.6074198163        1.6541530082
 C          0.6671864003        3.9071614334       -0.0079992709
 C          0.1867589943        5.1726872848        0.6350417484
 C          1.6192904620        4.7569469901        0.7770074039
 H          2.3744299605        5.3129626451        0.2419651500
 H          1.9505786332        4.3840159485        1.7353438961
 H         -0.0427812069        6.0177491519        0.0043096620
 H         -0.4558153537        5.0806642638        1.4977061441
 H          0.7864041031        3.8957290073       -1.0841197984
