  62
        -98.94462123
 C          1.7386617384        0.3660889183        0.2437230109
 C          2.8645834103        0.2580381661        1.1040462104
 C          3.9784773314       -0.5713028162        0.6295708092
 C          3.8719185633       -1.1921570174       -0.5588745743
 C          4.9471845689       -2.0236353808       -1.1943817579
 C          5.8467974761       -1.1695273707       -2.0987923601
 C          6.3505424300        0.1121655375       -1.4350823957
 H          6.9988802451        0.6175204406       -2.1541287281
 H          5.5017706564        0.7737222450       -1.2474827304
 C          7.1172990836       -0.1111602089       -0.1240576304
 H          7.4408685622       -1.1504721133       -0.0562294192
 H          8.0169072878        0.5078463555       -0.1348246789
 C          6.3367572316        0.2594561317        1.1384785714
 H          7.0359494310        0.2721574387        1.9788351773
 H          5.9314929233        1.2691675846        1.0352304551
 C          5.1877523402       -0.6848350346        1.5143650294
 H          4.8505243052       -0.4147872319        2.5193676062
 H          5.5508340919       -1.7143996579        1.5398050670
 H          6.6970720400       -1.7775754885       -2.4129701116
 H          5.2788815041       -0.8931885165       -2.9901956397
 H          4.4720927803       -2.7996038226       -1.7971372815
 H          5.5414779508       -2.4965576919       -0.4148957009
 O          2.7728205365       -1.0886287351       -1.3445249447
 C          1.6861745784       -0.3072887926       -0.9766188575
 O          0.7672845189       -0.3181522726       -1.8213784964
 O          2.9345205368        0.8400681539        2.2191795093
 C          0.6071917863        1.2592947110        0.7246937241
 C         -0.5367253672        0.4707742701        1.3149070425
 C         -0.9633654589        0.6929842457        2.6187934255
 C         -2.0404671508       -0.0042392255        3.1393255628
 C         -2.7117843114       -0.9399431640        2.3723821903
 C         -2.2857037206       -1.1744396759        1.0721692058
 C         -1.2140550204       -0.4674102551        0.5489704754
 H         -0.8957679815       -0.6518452102       -0.4663320675
 N         -2.9738233388       -2.1181125267        0.2726513538
 S         -4.5184019510       -1.6378478291       -0.1711104055
 O         -5.3596516626       -1.6469055801        0.9985409474
 O         -4.9137370257       -2.5136264194       -1.2505595246
 C         -4.3059969049        0.0306560834       -0.7626007946
 C         -4.4272832936        1.0827885903        0.1225863358
 C         -4.1733482459        2.3676551084       -0.3287248846
 C         -3.8017465312        2.5755518902       -1.6479661430
 C         -3.6800251584        1.5076338277       -2.5234191694
 C         -3.9284347266        0.2202139148       -2.0766633393
 H         -3.8464719153       -0.6368945563       -2.7262000590
 H         -3.3858166357        1.6718572563       -3.5477505105
 H         -3.6073553530        3.5768605743       -1.9998233515
 H         -4.2613106872        3.1999873098        0.3506623283
 H         -4.7212296486        0.8785638955        1.1389410980
 H         -2.4573712871       -2.3568040506       -0.5634361692
 H         -3.5619065789       -1.4826570997        2.7529647500
 H         -2.3602431848        0.1813872016        4.1533250781
 H         -0.4387012439        1.4126678850        3.2297836264
 H          1.0473958375        1.8620083590        1.5302882972
 C          0.0867770027        2.1988998485       -0.3470430541
 C         -0.5450790984        3.4925303379        0.0657975706
 C          0.8006728060        3.4924593144       -0.5936827297
 H          0.8822860383        3.8494150503       -1.6092143265
 H          1.6680431693        3.7073141913        0.0137808398
 H         -1.3922650937        3.8505554668       -0.4968227270
 H         -0.5903364958        3.7125214682        1.1213589161
 H         -0.3265774397        1.6857343645       -1.2056395076
