  62
        -98.94478794
 C          1.8524645091        0.7545154687        0.4094013098
 C          2.4541133873        0.1476848760       -0.7198054872
 C          3.5080020433       -0.8327426841       -0.4270373795
 C          3.8074989103       -1.1351366102        0.8492040178
 C          4.8360573084       -2.1341685751        1.3055420315
 C          6.2658752781       -1.5788535547        1.3596678726
 C          6.9271431607       -1.3504378359       -0.0000825878
 H          7.9880277504       -1.1717353927        0.1860523035
 H          6.8504804522       -2.2596123126       -0.5973316281
 C          6.3577601323       -0.1634065281       -0.7895250442
 H          5.7912049509        0.4838044787       -0.1161040639
 H          7.1791664134        0.4338842096       -1.1915401582
 C          5.4642956255       -0.5552597212       -1.9665269815
 H          6.0547174363       -1.0920348300       -2.7123992677
 H          5.0873890509        0.3597287208       -2.4303742946
 C          4.2581380783       -1.4225295903       -1.5827607238
 H          3.5756953373       -1.4602402032       -2.4356173858
 H          4.5826098171       -2.4367227946       -1.3501210598
 H          6.2558868794       -0.6423781543        1.9221036413
 H          6.8719888075       -2.2955429366        1.9186515973
 H          4.5470954734       -2.4393983910        2.3137403313
 H          4.8088234642       -3.0103712872        0.6569129674
 O          3.1685091365       -0.5656117855        1.9064100349
 C          2.1913709037        0.3987508391        1.7140456524
 O          1.6954886683        0.8455602764        2.7693581782
 H         -0.4050280712       -0.5169458389        0.7502655813
 C         -0.8881223452       -0.0255446284       -0.0858338992
 C         -0.4042076451        1.2039072573       -0.5170952370
 C         -1.0445537618        1.8308307232       -1.5774320122
 C         -2.1169722320        1.2223156905       -2.2079320536
 C         -2.5795588468       -0.0119471967       -1.7920006250
 C         -1.9594737951       -0.6376545651       -0.7171339283
 N         -2.4317149048       -1.8830696556       -0.2713445997
 S         -4.0849871698       -2.1014863419       -0.1420908496
 O         -4.2542665352       -3.1005430660        0.8898982046
 O         -4.6337193112       -2.4344541618       -1.4331574931
 C         -4.7299659825       -0.5270476001        0.3960681841
 C         -4.2513044342        0.0048035767        1.5771470329
 C         -4.7200387770        1.2396799405        1.9945515340
 C         -5.6555895372        1.9180836687        1.2281518573
 C         -6.1309223028        1.3680150275        0.0481226210
 C         -5.6635265994        0.1341704467       -0.3755881479
 H         -6.0023872528       -0.3286997730       -1.2880611707
 H         -6.8597686389        1.8968488206       -0.5444520573
 H         -6.0151923425        2.8809423920        1.5548918758
 H         -4.3500885591        1.6681687039        2.9122909108
 H         -3.5262997312       -0.5474615512        2.1538912979
 H         -1.9468123868       -2.2435543914        0.5366211466
 H         -3.3998184473       -0.5068837870       -2.2860451889
 H         -2.5968557493        1.7152438414       -3.0393459491
 H         -0.6979064665        2.7919351938       -1.9190440860
 C          0.7706562786        1.8023321779        0.2191283842
 H          0.4324873746        2.0757715382        1.2294919078
 C          1.3453592580        3.0323107067       -0.4519054213
 C          0.7615061713        4.3849222024       -0.1790468291
 C          2.1027213369        4.0207970828        0.3812060182
 H          2.9834051646        4.4828130804       -0.0392038246
 H          2.1799724736        3.8201412058        1.4402733073
 H         -0.0726126603        4.4415045356        0.5036701185
 H          0.7231647354        5.1023365041       -0.9847755801
 H          1.7217065312        2.8253257774       -1.4469722108
 O          2.1294773876        0.4052984224       -1.9072244610
