  62
        -98.94465589
 C         -1.7743716020       -1.0802512251       -0.0512782998
 C         -2.9700622804       -1.0964508663        0.7168322648
 C         -4.1590530995       -0.5123178878        0.0895055777
 C         -4.0785348476       -0.0252023229       -1.1615796603
 C         -5.2079710167        0.5705818575       -1.9570229522
 C         -5.4654516399        2.0546784286       -1.6627077840
 C         -6.1124755077        2.3458651701       -0.3081026335
 H         -6.4336243796        3.3892829868       -0.3243255477
 H         -7.0066771115        1.7322162903       -0.1944180569
 C         -5.1836797029        2.1344377934        0.8958516083
 H         -4.1458621774        2.1036397747        0.5553742293
 H         -5.2700228087        2.9848373792        1.5760519249
 C         -5.4754373680        0.8730260626        1.7089435138
 H         -6.4635937354        0.9535089052        2.1672356986
 H         -4.7362675099        0.8053464716        2.5112942978
 C         -5.4173353684       -0.4290146701        0.8992814144
 H         -5.4188404871       -1.2682607975        1.5990350978
 H         -6.2916652025       -0.5097940384        0.2536599155
 H         -4.5193415906        2.5958993383       -1.7381986638
 H         -6.1270299223        2.4320941100       -2.4459109935
 H         -4.9335455200        0.4710211107       -3.0094838635
 H         -6.1204082780        0.0002904028       -1.7803933369
 O         -2.9226674414       -0.0417921456       -1.8728213099
 C         -1.7428655723       -0.5402036507       -1.3368524643
 O         -0.7711227729       -0.4361340409       -2.1138813109
 O         -3.0392911038       -1.5898560576        1.8735702732
 C         -0.5458640133       -1.6887531426        0.6034567454
 C          0.3718748067       -0.6401690670        1.1842608684
 C          0.7130150347       -0.6518045161        2.5313670839
 C          1.5906113346        0.2871157890        3.0465670921
 C          2.1432902654        1.2579209908        2.2303522436
 C          1.8005652893        1.2816217315        0.8850765740
 C          0.9290142441        0.3349007777        0.3691065616
 H          0.6738877272        0.3568810240       -0.6800989751
 N          2.3708267490        2.2597852565        0.0371054215
 S          4.0226989041        2.0867439699       -0.1987155550
 O          4.7057690011        2.4462120990        1.0179389976
 O          4.3416048088        2.8747266994       -1.3674664165
 C          4.2376247575        0.3487340087       -0.5337521715
 C          4.0207559287       -0.1033969744       -1.8198257206
 C          4.1056594403       -1.4621189412       -2.0757312541
 C          4.3926094545       -2.3405946034       -1.0424365711
 C          4.5989343232       -1.8716044595        0.2456251980
 C          4.5200431400       -0.5133366574        0.5065867661
 H          4.6777577833       -0.1073275487        1.4921244530
 H          4.8164741723       -2.5587907849        1.0471471430
 H          4.4595491835       -3.3981706059       -1.2454901918
 H          3.9408878392       -1.8299822411       -3.0758947637
 H          3.8020149294        0.6120427976       -2.5967533697
 H          1.9157340964        2.2933792815       -0.8652423073
 H          2.8397754032        1.9889132715        2.6081337852
 H          1.8466865461        0.2636224473        4.0947938878
 H          0.2783958270       -1.3991235902        3.1788068375
 H         -0.9380783944       -2.2879564952        1.4360642845
 C          0.2404990981       -2.6029955300       -0.3172475626
 C          1.1021844445       -3.6701736929        0.2843685354
 C         -0.1574968722       -4.0419167471       -0.4375314936
 H         -0.0819392510       -4.5168363716       -1.4040290606
 H         -1.0024502905       -4.3766891610        0.1466634071
 H          2.0479703773       -3.8888789661       -0.1850843017
 H          1.1125512073       -3.7564892803        1.3600226541
 H          0.5991357813       -2.1084231241       -1.2105326980
