  62
        -98.93192412
 C         -1.9746420573       -1.2848694007        0.6931615549
 C         -1.9419260928        0.0983366372        1.0046843150
 C         -3.1379661151        0.8892562183        0.6705638764
 C         -4.1909215317        0.2742663349        0.1058137024
 C         -5.5391756199        0.8454001399       -0.2590664787
 C         -5.5768176110        2.2414194301       -0.8916269030
 C         -4.4046391584        2.5524551705       -1.8332350313
 H         -3.8414171863        1.6409323943       -2.0417455563
 H         -4.7986920560        2.9157408896       -2.7842192326
 C         -3.4592092772        3.6192548710       -1.2771359290
 H         -2.8871358838        4.0464924552       -2.1044548873
 H         -4.0550440343        4.4243329530       -0.8416806349
 C         -2.4526852511        3.1225357551       -0.2404115765
 H         -1.9065902118        3.9919057759        0.1346091699
 H         -1.7264259267        2.4633023271       -0.7251618208
 C         -3.0505453937        2.3614255269        0.9550126663
 H         -2.3625656411        2.4617392941        1.7989348527
 H         -4.0138254589        2.7753312935        1.2426978250
 H         -5.6166737152        2.9973416956       -0.1087722773
 H         -6.5163249315        2.3112941078       -1.4427788633
 H         -6.1600978916        0.8445144399        0.6419412190
 H         -5.9769532290        0.1201205669       -0.9496008003
 O         -4.1750546244       -1.0544321322       -0.1918988670
 C         -3.0723311185       -1.8648288956        0.0589976152
 O         -3.2232557163       -3.0380565038       -0.3254059300
 O         -0.9532365181        0.6453260825        1.5599553184
 C         -0.7247069282       -2.0716925036        1.0441367593
 C          0.3232448616       -1.8829435344       -0.0234726660
 C         -0.0027006949       -1.9846487230       -1.3717985179
 C          0.9604611564       -1.7879794619       -2.3451747310
 C          2.2665117705       -1.4920066409       -1.9950305821
 C          2.6020165329       -1.3860765201       -0.6518871161
 C          1.6317194895       -1.5802893388        0.3239338769
 H          1.8952017582       -1.4778954429        1.3679549350
 N          3.9344840931       -1.0877907308       -0.2976477371
 S          4.5246711374        0.4298859608       -0.6966742076
 O          4.3141815713        0.6559440756       -2.1028325986
 O          5.8938327192        0.4472678614       -0.2368175002
 C          3.5488491351        1.5629487918        0.2742017728
 C          2.2498652157        1.8255337988       -0.1137356518
 C          1.4680184680        2.6466595259        0.6823401079
 C          1.9964573641        3.1876697377        1.8440589639
 C          3.3037880784        2.9170831642        2.2182882545
 C          4.0884527043        2.0906728619        1.4305012039
 H          5.1086078490        1.8496453957        1.6830716160
 H          3.7100852374        3.3413377855        3.1225364885
 H          1.3796831495        3.8203396310        2.4625250137
 H          0.4445955980        2.8404218258        0.4075780790
 H          1.8695167998        1.3878234843       -1.0231425927
 H          4.1393420105       -1.2695088548        0.6754581058
 H          3.0239970911       -1.3207446668       -2.7420235218
 H          0.6929223063       -1.8693562134       -3.3881112865
 H         -1.0209194783       -2.2199754122       -1.6474094749
 H         -0.3393849847       -1.5992220439        1.9623815016
 C         -0.9815214968       -3.5361908447        1.3628631289
 C         -0.6221194395       -4.6554851458        0.4375865048
 C          0.1635261532       -4.4467241903        1.6953390590
 H          0.0450809257       -5.1514119704        2.5042923827
 H          1.1629811632       -4.0506379890        1.5957039384
 H         -1.3029913676       -5.4903070731        0.3760368634
 H         -0.1537744878       -4.4100947840       -0.5027982691
 H         -1.8902098066       -3.6689754735        1.9403914930
