  62
        -98.94334754
 C         -2.5558321373       -0.0267589573       -0.1445439853
 C         -2.4135465933       -1.1647461110       -0.9770737390
 C         -1.9112681027       -2.3859696630       -0.3366341390
 C         -1.6193236643       -2.3649117585        0.9760273215
 C         -1.0665612061       -3.5244700041        1.7525856049
 C          0.4666337675       -3.4917128574        1.7916109058
 C          1.1236942568       -3.3235979174        0.4211080441
 H          0.9251377674       -2.3141715507        0.0512203651
 H          2.2041865072       -3.3911127731        0.5717406234
 C          0.6908874586       -4.3515678854       -0.6331966329
 H          1.5789530880       -4.6884474827       -1.1718414403
 H          0.2543364559       -5.2241192548       -0.1451109589
 C         -0.2840059700       -3.8111125818       -1.6813557130
 H         -0.3166803201       -4.5186922817       -2.5145194431
 H          0.0950808768       -2.8612904821       -2.0698061188
 C         -1.7268925767       -3.5984536225       -1.2046681109
 H         -2.0842583488       -4.4968568937       -0.6966057291
 H         -2.3493539662       -3.4310978034       -2.0887112858
 H          0.8184028481       -4.4151775275        2.2564934378
 H          0.7782431374       -2.6494247121        2.4138886552
 H         -1.4462890861       -3.4629691774        2.7742441323
 H         -1.4106606122       -4.4534513603        1.3014819484
 O         -1.7751533177       -1.2607304361        1.7472868839
 C         -2.1821834777       -0.0519887466        1.2013296467
 O         -2.1901748123        0.8890443583        2.0170184253
 O         -2.6904218285       -1.1561143836       -2.2084796071
 C         -2.9291068914        1.2881273048       -0.8114366644
 C         -1.8547359705        2.2954812914       -0.4849991591
 C         -2.0812273907        3.5495181033        0.0637100604
 C         -1.0125623077        4.3679106339        0.3910626422
 C          0.2915017273        3.9480101746        0.2047347988
 C          0.5265339317        2.6968998578       -0.3554511287
 C         -0.5436002060        1.9028590887       -0.7238460978
 H         -0.3522344734        0.9325985781       -1.1600801969
 N          1.8326091117        2.2113711634       -0.5619003216
 S          2.0608400659        0.5558149288       -0.2793816268
 O          1.7010018412       -0.1694942780       -1.4730109324
 O          1.4014398609        0.1612737436        0.9435884620
 C          3.8314200189        0.5073571997       -0.0717878297
 C          4.6325763261        0.5229514269       -1.1978652523
 C          6.0093776712        0.5217019523       -1.0401204540
 C          6.5590155520        0.5050706095        0.2333509494
 C          5.7422582593        0.4864500867        1.3539250290
 C          4.3642917480        0.4896035939        1.2029977278
 H          3.6883208279        0.4681542575        2.0430873110
 H          6.1714784165        0.4696465502        2.3427164882
 H          7.6307942379        0.5036444071        0.3535151388
 H          6.6473677755        0.5329039878       -1.9089706784
 H          4.1588182722        0.5255407291       -2.1656246525
 H          2.5290877109        2.7600235304       -0.0749308213
 H          1.1203747716        4.5754219522        0.4958400405
 H         -1.1995061556        5.3388072500        0.8245867021
 H         -3.0891214874        3.8742009507        0.2643471393
 H         -2.8635996827        1.0658270638       -1.8908877034
 C         -4.3446843281        1.7809810436       -0.5623180844
 C         -5.4369311857        0.8265439501       -0.1843103712
 C         -4.9568332292        1.8448798714        0.8036247233
 H         -5.6053696508        2.6783533217        1.0315819299
 H         -4.3553740398        1.5153441380        1.6352763898
 H         -6.4113257575        0.9564817941       -0.6308599622
 H         -5.1608462387       -0.2061609091       -0.0255867974
 H         -4.6207034755        2.5725100623       -1.2528014491
