  62
        -98.94842772
 C          0.7811041666        1.2288030945        0.0799997098
 C          1.5269518136        0.6665384647        1.1422048568
 C          2.4050392590       -0.4550777155        0.7848021475
 C          2.4354481138       -0.8863895127       -0.4897039180
 C          3.3865823469       -1.9201613359       -1.0185821890
 C          4.6841069872       -1.2673346270       -1.5184355425
 C          5.3148023616       -0.2924882987       -0.5242015324
 H          6.2377960125        0.0794344287       -0.9742498745
 H          4.6520407458        0.5662200252       -0.3949572444
 C          5.6262574883       -0.9007391205        0.8503479888
 H          5.6348047534       -1.9891301679        0.7817660023
 H          6.6271361678       -0.5875348256        1.1548646788
 C          4.6682500811       -0.4715433795        1.9630072963
 H          5.0923838319       -0.7869058600        2.9201914121
 H          4.5930134858        0.6187050261        1.9826851694
 C          3.2493528979       -1.0484363064        1.8771518810
 H          2.7373392482       -0.8117606688        2.8149100670
 H          3.2989871621       -2.1348605814        1.7799703241
 H          5.3981431419       -2.0582143089       -1.7551429323
 H          4.4637178051       -0.7210188378       -2.4381870333
 H          2.9114480985       -2.4353215129       -1.8535126772
 H          3.6117106275       -2.6394223791       -0.2336886186
 O          1.6432230053       -0.3736537478       -1.4640840882
 C          0.7947567668        0.6924364944       -1.2075232880
 O          0.1243518636        1.0638240674       -2.1880184726
 O          1.4764915819        1.0951017770        2.3278159810
 C         -0.0663719220        2.4594157030        0.3444100380
 C         -1.5055329076        2.2100233060       -0.0262941870
 C         -2.2556375100        3.0772339114       -0.8099432650
 C         -3.5740566328        2.7842582003       -1.1119514486
 C         -4.1690514559        1.6287134571       -0.6421976768
 C         -3.4299405066        0.7609883532        0.1555725272
 C         -2.1118659890        1.0581797719        0.4604632432
 H         -1.5470464582        0.3853808096        1.0902988378
 N         -4.0144463017       -0.4074795371        0.6609367853
 S         -3.1154135514       -1.7226869236        1.1252196806
 O         -4.0779897541       -2.8043028877        1.1746119129
 O         -2.4260698732       -1.4524451255        2.3629754868
 C         -1.9347047619       -2.0743885179       -0.1658841522
 C         -2.2203425744       -1.7879438996       -1.4851444005
 C         -1.3160501094       -2.1687547946       -2.4634995200
 C         -0.1600418756       -2.8460637189       -2.1123367589
 C          0.1115140929       -3.1303392468       -0.7833608542
 C         -0.7787342243       -2.7337990046        0.2001558131
 H         -0.5971970084       -2.9181186130        1.2474638023
 H          1.0113095492       -3.6560815326       -0.5073537498
 H          0.5346153550       -3.1484563413       -2.8800790024
 H         -1.5160067209       -1.9325310975       -3.4960263341
 H         -3.1270813397       -1.2659235717       -1.7438039930
 H         -4.9137215847       -0.6576938015        0.2791731528
 H         -5.1951368353        1.3969719823       -0.8829268568
 H         -4.1444901091        3.4628632400       -1.7275601401
 H         -1.8078084579        3.9801210400       -1.1903041448
 H         -0.0188410015        2.6197212067        1.4322840262
 C          0.5424238804        3.6595472563       -0.3524491720
 C          0.3607380277        5.0363867683        0.2108176361
 C          1.6966271346        4.3628408878        0.2941339979
 H          2.4984704315        4.7235744294       -0.3326152860
 H          2.0263747519        3.9930959156        1.2543297937
 H          0.2481623346        5.8638665256       -0.4733045113
 H         -0.2148600713        5.1324520161        1.1190047865
 H          0.5691879532        3.5444219362       -1.4304667675
