  62
        -98.94342964
 C         -2.5026509976       -1.1412663664        0.0115080990
 C         -3.4460672361       -0.5833019086        0.9163455626
 C         -4.3931715826        0.3860541316        0.3581896528
 C         -4.3505856638        0.6758820443       -0.9544861562
 C         -5.2648840274        1.6211613901       -1.6852048911
 C         -4.8415522926        3.0938188645       -1.5960789111
 C         -5.0612867183        3.7525127548       -0.2335731395
 H         -4.9310502027        4.8274916479       -0.3732152090
 H         -6.0908632554        3.5884613713        0.0858689539
 C         -4.0975292903        3.2771286197        0.8627880199
 H         -3.2405280036        2.7780646480        0.4042440202
 H         -3.7097835265        4.1413931712        1.4066252254
 C         -4.7231373774        2.3373545989        1.8936149995
 H         -5.4946256708        2.8696039076        2.4543639593
 H         -3.9436893273        2.0335221543        2.5969472430
 C         -5.3429542707        1.0673073654        1.2963150358
 H         -5.5585016512        0.3737065859        2.1126356826
 H         -6.2751504347        1.3074247805        0.7854024600
 H         -3.7875770157        3.1716360611       -1.8728948670
 H         -5.4218974390        3.6445324600       -2.3399953134
 H         -5.2478741856        1.3207153935       -2.7351201217
 H         -6.2821684523        1.5103902889       -1.3086533717
 O         -3.4509045617        0.1034589740       -1.7949662163
 C         -2.4954475886       -0.7944157846       -1.3393222964
 O         -1.7292743944       -1.1917926852       -2.2419373942
 O         -3.4978279809       -0.8923478106        2.1360867178
 C         -1.5162608341       -2.1385511465        0.5959970103
 C         -0.1696496991       -1.5071427504        0.8609185364
 C          0.3404226691       -1.4342117948        2.1518766103
 C          1.5821586916       -0.8705577619        2.3878763234
 C          2.3364160638       -0.3628683676        1.3453619654
 C          1.8347427461       -0.4281954736        0.0518541151
 C          0.5940979717       -1.0041581083       -0.1827761687
 H          0.2075036028       -1.0497079716       -1.1903282952
 N          2.5753349756        0.1125109366       -1.0131969563
 S          4.1906454479       -0.3132267286       -1.1659761077
 O          4.5091984277       -0.1045532870       -2.5615013776
 O          4.4442562756       -1.6348490917       -0.6402209309
 C          5.0462802601        0.9051341013       -0.1886389994
 C          4.7965809442        2.2390336010       -0.4455634861
 C          5.4620604381        3.1996427976        0.2990952035
 C          6.3636611201        2.8126890537        1.2796131404
 C          6.6062924617        1.4695082396        1.5226639404
 C          5.9426399379        0.5034188835        0.7822982027
 H          6.0939400394       -0.5524548330        0.9404861870
 H          7.3075338422        1.1707271715        2.2851505354
 H          6.8799130332        3.5628280870        1.8576057297
 H          5.2753682390        4.2451344315        0.1132908754
 H          4.0903332931        2.4975554719       -1.2169975113
 H          2.1003996770        0.0495740147       -1.9023930053
 H          3.3028019225        0.0798282101        1.5233494000
 H          1.9659645711       -0.8218915169        3.3954246129
 H         -0.2487067868       -1.8144455575        2.9736230961
 H         -1.9452972695       -2.4242709311        1.5659401798
 C         -1.3615368591       -3.3919906879       -0.2437578088
 C         -0.8668920586       -4.6468231323        0.4080621169
 C         -2.2974227621       -4.5411904755       -0.0265205509
 H         -2.6221664038       -5.1096089898       -0.8850897729
 H         -3.0550534412       -4.4307423492        0.7356070619
 H         -0.2038881536       -5.2895407058       -0.1506550839
 H         -0.6547527758       -4.6105871660        1.4658357335
 H         -1.0459938996       -3.1948241197       -1.2602273839
