  62
        -98.93428705
 C         -1.7404319483       -0.3352663403        1.1675419891
 C         -1.9923697557       -0.2458249512       -0.2211883280
 C         -3.3948858266       -0.4301593465       -0.6556476182
 C         -4.3415164524       -0.6584693821        0.2724410528
 C         -5.8225338839       -0.8379731738        0.0706797365
 C         -6.5478038797        0.4912193882       -0.1968515931
 C         -5.8354843750        1.4289451270       -1.1683868502
 H         -6.3848685176        2.3741448872       -1.1803991520
 H         -4.8334158651        1.6427654024       -0.7916823080
 C         -5.7403446015        0.9259905923       -2.6068037459
 H         -5.2821542358        1.7223045831       -3.1990173795
 H         -6.7479104383        0.7614232364       -2.9954900650
 C         -4.9249660334       -0.3513928451       -2.8165056135
 H         -4.7520950705       -0.4529024184       -3.8919819409
 H         -5.4881747809       -1.2291102394       -2.5111625488
 C         -3.5500437647       -0.3480137056       -2.1552356626
 H         -2.9690414921       -1.1861411802       -2.5588229894
 H         -3.0062775925        0.5525032123       -2.4628145429
 H         -7.5494006724        0.2694454863       -0.5690117089
 H         -6.6507656007        1.0163826825        0.7559633479
 H         -6.0067339608       -1.5493053297       -0.7288347801
 H         -6.2151731880       -1.2673784935        0.9950909776
 O         -4.0544111822       -0.7113021963        1.6053614627
 C         -2.7718070429       -0.5412781725        2.0858690146
 O         -2.6768002241       -0.5877538616        3.3291273339
 H          2.0533899332        0.0140785233        0.3703820201
 C          1.5466199238        0.9601550471        0.4546633215
 C          0.3224319024        1.0446066295        1.0967020561
 C         -0.3111987064        2.2837557926        1.1613928916
 C          0.2591435624        3.4007517994        0.5846894536
 C          1.4883031862        3.3135081352       -0.0463484204
 C          2.1328821714        2.0855707751       -0.1081019551
 N          3.3758405016        1.9529742179       -0.7454821906
 S          4.5587452530        1.0051198639       -0.0394754783
 O          4.4754386595        1.0377580249        1.4026916251
 O          5.8001598684        1.4819868428       -0.6124274720
 C          4.2549436890       -0.6451000598       -0.6336139851
 C          3.9317575301       -0.8295138703       -1.9630986763
 C          3.7414186281       -2.1195160196       -2.4317188212
 C          3.8844472342       -3.1974836716       -1.5713408592
 C          4.2123269007       -2.9955885542       -0.2392896400
 C          4.4004540737       -1.7073608298        0.2365281390
 H          4.6459435897       -1.5039627570        1.2668587119
 H          4.3202183768       -3.8346334233        0.4298710793
 H          3.7355357053       -4.2005770845       -1.9390106449
 H          3.4809791272       -2.2806524412       -3.4653675128
 H          3.8264863759        0.0302650200       -2.6032656617
 H          3.7563047377        2.8083406921       -1.1233002729
 H          1.9399800639        4.1870218117       -0.4919500774
 H         -0.2507049792        4.3514404460        0.6339959851
 H         -1.2679614031        2.3543336865        1.6622713720
 C         -0.3472068690       -0.1442993199        1.7408329038
 H         -0.5102468945        0.1038285669        2.8034994962
 C          0.5123536441       -1.3996656294        1.7167847793
 C         -0.1079025065       -2.7630417728        1.7710905196
 C          0.5748100815       -2.3000009275        0.5209838847
 H          1.5265159817       -2.7400001381        0.2613350685
 H         -0.0302871620       -2.0349594154       -0.3309384209
 H         -1.1867484980       -2.8221721284        1.7774244343
 H          0.3732748855       -3.5190536344        2.3730864316
 H          1.4327899654       -1.2682792304        2.2789115262
 O         -1.1017721499       -0.0185666738       -1.0800476610
