  62
        -98.95136214
 C          1.8183488147        1.2578079445       -0.2875335832
 C          2.9122667909        0.5794350849        0.2969568911
 C          3.2307383523       -0.7313009029       -0.2776519326
 C          2.5047764656       -1.2034066262       -1.3076916757
 C          2.6934033433       -2.5320630452       -1.9869980921
 C          1.9858739958       -3.6857682164       -1.2624620523
 C          2.6643573891       -4.1526674677        0.0261195201
 H          3.7237310656       -4.3333218708       -0.1624154056
 H          2.2115122508       -5.1084240829        0.2976891189
 C          2.5036727932       -3.1837346317        1.2059615205
 H          2.2342748587       -3.7466029191        2.1035101501
 H          1.6720113843       -2.5034362808        1.0037126892
 C          3.7571797909       -2.3739925628        1.5406850490
 H          4.5439265185       -3.0475160594        1.8893683266
 H          3.5122864292       -1.6905867689        2.3581067696
 C          4.3092202012       -1.5413806654        0.3763166093
 H          4.7938940222       -2.1900618176       -0.3529625173
 H          5.0515903396       -0.8457719799        0.7762416040
 H          1.9399607566       -4.5308301150       -1.9537770417
 H          0.9613700156       -3.3784134374       -1.0355164540
 H          3.7565952913       -2.7543358269       -2.0836673610
 H          2.2633687325       -2.4360378348       -2.9862779310
 O          1.4925019120       -0.4984621072       -1.8744689010
 C          1.0918030920        0.7169250157       -1.3475090057
 O          0.1007489983        1.2211634972       -1.9125696622
 O          3.5821010961        1.0435414636        1.2605515244
 C          1.3431732711        2.5650017511        0.3191316634
 C         -0.0942499937        2.4229666413        0.7588452531
 C         -1.0390980762        3.4330326149        0.6255943033
 C         -2.3517337380        3.2238420523        1.0136525628
 C         -2.7568723055        1.9996999765        1.5137862206
 C         -1.8160936940        0.9876592228        1.6618480616
 C         -0.4946205588        1.2169387746        1.3199319417
 H          0.2213313781        0.4184328233        1.4496758947
 N         -2.1695894653       -0.2980447753        2.1275263956
 S         -2.0328543375       -1.5368020003        1.0007758025
 O         -2.5143411333       -2.7202296253        1.6816776125
 O         -0.6882804303       -1.5973267703        0.4929187801
 C         -3.1946751007       -1.0765647251       -0.2721958074
 C         -4.4763318985       -1.5897934337       -0.2017370325
 C         -5.4184820029       -1.1759209730       -1.1285575146
 C         -5.0673762836       -0.2495564341       -2.0994980818
 C         -3.7786962444        0.2576991731       -2.1535621031
 C         -2.8274721114       -0.1549178704       -1.2318036626
 H         -1.8176156093        0.2253614317       -1.2633359671
 H         -3.4969268853        0.9775719216       -2.9052253377
 H         -5.8008425350        0.0786910844       -2.8190489918
 H         -6.4203263013       -1.5722927226       -1.0894266853
 H         -4.7004639337       -2.3093565420        0.5693752880
 H         -3.0916671818       -0.3385584599        2.5412120200
 H         -3.7874678475        1.8249314612        1.7840953209
 H         -3.0737773941        4.0182437504        0.9028077500
 H         -0.7484018947        4.3836014443        0.2088485780
 H          1.9691593983        2.7218573181        1.2107834503
 C          1.5635028114        3.7156499868       -0.6412945532
 C          1.8713629348        5.0890976705       -0.1257693299
 C          2.9441846681        4.2792190983       -0.7874308301
 H          3.2815264288        4.5693312608       -1.7710987255
 H          3.7197304951        3.8507382411       -0.1693629911
 H          1.4744974211        5.9405004986       -0.6578784151
 H          1.9271673176        5.2218370529        0.9441360002
 H          0.9620072190        3.6256453256       -1.5389366779
