  62
        -98.94803661
 C         -1.2671148069       -1.0546100494        0.0167283677
 C         -1.6200519971        0.0424230996        0.8375472322
 C         -2.6459617006        0.9453549777        0.3019188111
 C         -3.1333677323        0.7253272898       -0.9327499273
 C         -4.2094167148        1.5416635005       -1.5870644192
 C         -5.6021336220        0.9663437672       -1.2934079991
 C         -5.8506939383        0.6750638105        0.1864832842
 H         -6.8732652328        0.3026076692        0.2771237269
 H         -5.1848679351       -0.1292834597        0.5070526225
 C         -5.6633539559        1.8858540393        1.1112258273
 H         -5.6940014075        2.8064104938        0.5272411839
 H         -6.4965576544        1.9208072401        1.8162111299
 C         -4.3787625538        1.8563012976        1.9412382743
 H         -4.2985708455        0.8959579664        2.4566191646
 H         -4.4499625299        2.6342682076        2.7060016761
 C         -3.0772087859        2.0970317184        1.1656799980
 H         -3.1620506236        3.0106095758        0.5728608597
 H         -2.2749299664        2.2403600094        1.8958940644
 H         -6.3502804599        1.6722607675       -1.6586022154
 H         -5.7143594383        0.0332222181       -1.8502741800
 H         -4.1444445773        2.5685954487       -1.2319355131
 H         -4.0395077810        1.5308441823       -2.6652069309
 O         -2.7271736963       -0.3048046517       -1.7177720414
 C         -1.7851454840       -1.2190693006       -1.2675173941
 O         -1.5013356001       -2.1104296587       -2.0902727859
 H          0.8326946927        0.1452598692       -0.6062734567
 C          1.4331558902       -0.7273222993       -0.8110369537
 C          1.0212525052       -1.9681005414       -0.3454013585
 C          1.7959377229       -3.0796749227       -0.6538104613
 C          2.9412527507       -2.9426848989       -1.4191504103
 C          3.3536187017       -1.7016772282       -1.8696930390
 C          2.5883629550       -0.5827585491       -1.5614241281
 N          2.9632946608        0.6987569510       -1.9916873514
 S          2.6752002548        2.0170250278       -1.0038613311
 O          1.2775040452        2.3702380569       -1.0251525855
 O          3.5868338455        3.0297178016       -1.4936435193
 C          3.1861185401        1.4867888035        0.6212935561
 C          2.2616531373        1.2310548049        1.6125339303
 C          2.7095473060        0.7679843809        2.8404540422
 C          4.0637644696        0.5700535663        3.0563010697
 C          4.9819508168        0.8405677662        2.0524569292
 C          4.5408661101        1.3001969885        0.8232281815
 H          5.2231341571        1.5330794794        0.0218772461
 H          6.0357851772        0.6915379022        2.2236270649
 H          4.4043896529        0.2057687631        4.0126507963
 H          1.9868147776        0.5600802460        3.6135041314
 H          1.2100661646        1.3841802429        1.4258663281
 H          3.8641135590        0.7529091907       -2.4434056784
 H          4.2495173864       -1.5976322508       -2.4620425685
 H          3.5274267678       -3.8158663998       -1.6617918823
 H          1.4981232761       -4.0540428576       -0.3028515576
 C         -0.2203835004       -2.0344142199        0.5111001599
 H          0.0539952956       -1.6825763195        1.5179883183
 C         -0.8002795070       -3.4292494426        0.6241436707
 C         -0.3189835431       -4.3683853804        1.6885427675
 C         -1.6807563879       -3.7526828640        1.7930450602
 H         -2.5469457860       -4.3761062296        1.6295636044
 H         -1.8364393133       -2.9741884899        2.5258438278
 H          0.4478951497       -4.0135580361        2.3602478950
 H         -0.2518619531       -5.4202946512        1.4550235337
 H         -1.0769204246       -3.8417614086       -0.3394538069
 O         -1.0965815152        0.2573708707        1.9649646996
