  62
        -98.94122481
 C         -1.5383682291       -1.6204103605       -0.2187320398
 C         -2.6781422512       -1.2587341866        0.5431459063
 C         -3.4799302089       -0.1331724520        0.0406058659
 C         -3.1044005050        0.4951226808       -1.0886807025
 C         -3.7601798725        1.6376408656       -1.8329925018
 C         -4.6428394984        2.6393158099       -1.0891317518
 C         -3.9528886969        3.4064299304        0.0362839522
 H         -3.1570039355        4.0209937434       -0.3917872347
 H         -4.6906683401        4.0799714152        0.4785970322
 C         -3.3442702557        2.5483692174        1.1447737319
 H         -3.0082969304        3.2197671609        1.9395528956
 H         -2.4598955555        2.0284902246        0.7709513564
 C         -4.2882025927        1.5228388627        1.7737480798
 H         -3.7990379712        1.1438993614        2.6745356994
 H         -5.2152285887        2.0121515760        2.0778271001
 C         -4.6345095487        0.3050584338        0.8923441882
 H         -4.8723673998       -0.5343916522        1.5513557717
 H         -5.5095466346        0.4938154249        0.2739822771
 H         -5.5351836271        2.1506843747       -0.7087902887
 H         -4.9738889646        3.3689296183       -1.8333912986
 H         -2.9446822487        2.1774444035       -2.3237942129
 H         -4.3566578308        1.1839641780       -2.6325177964
 O         -2.0101147467        0.1008255847       -1.7990530605
 C         -1.1923824596       -0.9396206305       -1.3841365403
 O         -0.2207255477       -1.1393079941       -2.1387232468
 H          1.6832631686       -2.1920884743       -1.0003288476
 C          1.6918576230       -1.8310580580        0.0156383379
 C          0.6023909919       -2.0647033979        0.8408451942
 C          0.6299638311       -1.5622267811        2.1388432204
 C          1.7196365740       -0.8443365039        2.5964047837
 C          2.7924400196       -0.5868234141        1.7603282387
 C          2.7658365825       -1.0733771962        0.4602779783
 N          3.8169083691       -0.7521467973       -0.4198929559
 S          4.2390643948        0.8679814373       -0.4809289237
 O          4.6919461837        1.1019345938       -1.8347055514
 O          5.2079316279        1.1432189761        0.5524165283
 C          2.7471153485        1.7950758855       -0.1493275567
 C          2.7569769908        2.7428654047        0.8545406194
 C          1.6039362071        3.4673646588        1.1088497818
 C          0.4621745438        3.2320261330        0.3589226395
 C          0.4691910676        2.2784354527       -0.6466490576
 C          1.6194807434        1.5514138417       -0.9079576445
 H          1.6271930643        0.7982643754       -1.6806657290
 H         -0.4169074389        2.0824679681       -1.2299900636
 H         -0.4387364426        3.7908458049        0.5588130426
 H          1.5969524705        4.2091047598        1.8910932282
 H          3.6648124265        2.8885782741        1.4172083362
 H          3.6742737106       -1.1127028128       -1.3528856197
 H          3.6414109486       -0.0090575836        2.0887248240
 H          1.7294467542       -0.4678769840        3.6077631907
 H         -0.2248310678       -1.7256964585        2.7795933005
 C         -0.6483448225       -2.7290484834        0.3217599208
 H         -1.1941589272       -3.1529351044        1.1745567477
 C         -0.3911948041       -3.8270042202       -0.6876288583
 C          0.2028329834       -5.1210734162       -0.2199191771
 C         -1.2311992388       -5.0670271985       -0.6508082342
 H         -1.5073083171       -5.5293918375       -1.5866900892
 H         -1.9959278540       -5.1314154628        0.1092509561
 H          0.4123879272       -5.2194355511        0.8344834325
 H          0.9138982172       -5.6234924673       -0.8577732698
 H         -0.1002533007       -3.4610764000       -1.6642828695
 O         -3.0145226899       -1.8550866640        1.5997528290
