  62
        -98.93990848
 C         -1.5280328863       -1.3997992294       -0.7106312570
 C         -2.7754780122       -1.1059738916       -0.1041081382
 C         -3.4111727655        0.1721627420       -0.4598342836
 C         -2.7935107398        0.9797878201       -1.3389385182
 C         -3.1996242063        2.3668682781       -1.7516137634
 C         -2.4898372924        3.4058478995       -0.8653203530
 C         -3.2349805030        3.7674990188        0.4186082955
 H         -2.5774827078        4.4185028425        0.9997060258
 H         -4.1304009598        4.3407386843        0.1673652094
 C         -3.6405695208        2.5775313051        1.2924945263
 H         -3.8031165957        2.9475516823        2.3070556026
 H         -2.8142493084        1.8643613043        1.3394837668
 C         -4.9196350771        1.8779240378        0.8081335647
 H         -5.6116906776        1.7734154966        1.6462941330
 H         -5.4149587660        2.5142756001        0.0747746958
 C         -4.7189012013        0.4725293532        0.2204102117
 H         -4.7897470059       -0.2698745292        1.0214869355
 H         -5.5340756562        0.2593732550       -0.4790883277
 H         -2.3443121970        4.3218863375       -1.4421149190
 H         -1.4986037954        3.0165955686       -0.6123118183
 H         -2.8656032248        2.5000782073       -2.7826184610
 H         -4.2785252732        2.4854623513       -1.7121524109
 O         -1.6269758893        0.6386688607       -1.9425009024
 C         -0.9433407913       -0.5220019014       -1.6221931245
 O          0.1369723664       -0.6392531609       -2.2342453725
 H          1.0565169460       -0.7408940446        0.0281735170
 C          0.8866458680       -1.2523629014        0.9605586180
 C         -0.0263435305       -2.2971236525        1.0122842023
 C         -0.2273472276       -2.9532481191        2.2196345300
 C          0.4513234002       -2.5503544155        3.3566316813
 C          1.3137124737       -1.4709603851        3.3143018214
 C          1.5261544695       -0.8097349186        2.1076037864
 N          2.3844504180        0.2943607254        2.0469916621
 S          2.1564156456        1.5828661645        0.9952151168
 O          2.6187681321        2.7339481529        1.7459020421
 O          0.8022930945        1.6518365636        0.5029631202
 C          3.3389942528        1.2528248963       -0.2941648005
 C          4.6694768402        1.4673425862        0.0162953454
 C          5.6359160392        1.2044588838       -0.9391456044
 C          5.2587590857        0.7308862117       -2.1874043497
 C          3.9214374024        0.5231076282       -2.4836392792
 C          2.9471054971        0.7850824182       -1.5308288273
 H          1.9018233740        0.6190421895       -1.7440565215
 H          3.6201565615        0.1537984570       -3.4510644312
 H          6.0095806583        0.5241737317       -2.9337866497
 H          6.6766990150        1.3676766693       -0.7101691008
 H          4.9158525636        1.8485731177        0.9933516133
 H          2.7315169955        0.6083743332        2.9410600295
 H          1.8145359634       -1.1319557827        4.2084833856
 H          0.2870233112       -3.0650128224        4.2912127932
 H         -0.9397255795       -3.7631588613        2.2706146015
 C         -0.8277160935       -2.6564568942       -0.2186044319
 H         -1.6304427541       -3.3381092750        0.0952798030
 C          0.0288971271       -3.3653995486       -1.2454342631
 C          0.3024346973       -4.8288779588       -1.0743232960
 C         -0.6051978715       -4.3587652995       -2.1702790326
 H         -0.2566692513       -4.4046633558       -3.1907678864
 H         -1.6662372279       -4.5325650997       -2.0642287503
 H          1.2789501540       -5.2026680401       -1.3404658963
 H         -0.1440640693       -5.3273139394       -0.2273471735
 H          0.8210479981       -2.7490611069       -1.6484805354
 O         -3.3317076557       -1.8839933607        0.7191858187
