  62
        -98.94453280
 C         -1.4602507039       -0.9522494377       -0.0025957243
 C         -2.7549676732       -1.3530229502        0.4045325580
 C         -3.6977995934       -0.2668989566        0.7044345830
 C         -3.2819466821        1.0095540594        0.6110448833
 C         -4.1503051394        2.2124368800        0.8380801508
 C         -4.8025051859        2.6802043618       -0.4704795552
 C         -5.4791612464        1.5583911799       -1.2582215192
 H         -5.9317931295        2.0092954125       -2.1441032588
 H         -4.7170423438        0.8583152519       -1.6082548176
 C         -6.5502388908        0.7884378303       -0.4731127152
 H         -6.8642763568        1.3702114935        0.3942697450
 H         -7.4272455037        0.6592693839       -1.1109519963
 C         -6.1214017228       -0.6078416015       -0.0181239376
 H         -5.7190698406       -1.1628832160       -0.8694416893
 H         -7.0110131429       -1.1407928851        0.3282300839
 C         -5.0905935283       -0.6525628345        1.1169666215
 H         -5.4325165751       -0.0331840232        1.9486887486
 H         -5.0242419076       -1.6878394027        1.4643080920
 H         -5.5351698724        3.4540240264       -0.2341611849
 H         -4.0304629741        3.1241234577       -1.1029770849
 H         -4.9167715228        1.9688888684        1.5711506764
 H         -3.5266073432        3.0170472229        1.2306116913
 O         -2.0206834981        1.3548008221        0.2484811551
 C         -1.0789218726        0.3879604843       -0.0770115579
 O          0.0299809047        0.8436732165       -0.4062584576
 H          2.1859500663       -1.2376136391       -0.8321258439
 C          1.9868475240       -1.4654330259        0.2007543896
 C          0.7318355353       -1.8892549407        0.6063354408
 C          0.5245333678       -2.1750121877        1.9542972314
 C          1.5480590762       -2.0395189151        2.8711243967
 C          2.7977623018       -1.6037059727        2.4650077099
 C          3.0138825680       -1.3147921784        1.1233010200
 N          4.2755646819       -0.8890236194        0.6838088172
 S          4.4425622820        0.2266180374       -0.5443380480
 O          4.1443209118       -0.3806655282       -1.8174919087
 O          5.8021093042        0.7060018180       -0.3906670176
 C          3.3173204877        1.5690849067       -0.2100690575
 C          2.6634063137        2.1661117660       -1.2661363925
 C          1.8391537528        3.2509644553       -1.0196318488
 C          1.6800696655        3.7152066798        0.2750147886
 C          2.3438230340        3.1043808081        1.3267297144
 C          3.1755911277        2.0242057909        1.0848666251
 H          3.7026671352        1.5356184055        1.8885197863
 H          2.2112950261        3.4632223734        2.3352938678
 H          1.0272166712        4.5525531424        0.4667235858
 H          1.3137613036        3.7205125926       -1.8359559728
 H          2.7993526254        1.7626120271       -2.2569156816
 H          4.9580751595       -0.7425481776        1.4127257155
 H          3.5997589605       -1.4926892899        3.1789470757
 H          1.3731145909       -2.2685414161        3.9114533828
 H         -0.4562839936       -2.5025807065        2.2710752895
 C         -0.4328843618       -2.0183634714       -0.3422122404
 H         -0.9312490873       -2.9790523938       -0.1489496629
 C         -0.0432538367       -1.9569926686       -1.8032669163
 C          0.5803775849       -3.1531577234       -2.4556974540
 C         -0.8212732766       -2.7539013579       -2.8050247476
 H         -1.0083152654       -2.3202440796       -3.7760597413
 H         -1.6333724951       -3.3627239354       -2.4349500763
 H          0.7202795910       -4.0348167582       -1.8485164046
 H          1.3621033988       -2.9931106420       -3.1829104329
 H          0.3015607790       -0.9757551897       -2.1098644662
 O         -3.1044890421       -2.5593315210        0.5148724274
