  62
        -98.94524117
 C         -2.4561484428       -1.2195025301       -0.0823512812
 C         -3.4987128275       -0.7739715055        0.7704661672
 C         -4.3403883033        0.3078411969        0.2505281471
 C         -4.0986821783        0.8100983527       -0.9738719994
 C         -4.8759687411        1.9064169775       -1.6503362948
 C         -4.4318530531        3.3205607476       -1.2516090095
 C         -4.8311677665        3.7539903067        0.1595594148
 H         -5.9003985395        3.5917471424        0.2991681572
 H         -4.6529000945        4.8290880908        0.2258520230
 C         -4.0509858057        3.0549132722        1.2817803943
 H         -3.7261650260        3.7963259089        2.0152734644
 H         -3.1472740646        2.5994243389        0.8689901906
 C         -4.8445888511        1.9884046518        2.0368567143
 H         -5.6761507029        2.4578415001        2.5668875833
 H         -4.1843813512        1.5334910470        2.7794948751
 C         -5.4015667411        0.8681181419        1.1487469738
 H         -6.2423882061        1.2357684002        0.5612976004
 H         -5.7510029467        0.0596132201        1.7953000502
 H         -4.8822408390        4.0161753095       -1.9635147025
 H         -3.3467182802        3.3898134678       -1.3613963029
 H         -5.9392744374        1.7849322337       -1.4418809792
 H         -4.7149850392        1.7851389236       -2.7237217237
 O         -3.0972083804        0.3479960691       -1.7677361333
 C         -2.2378879170       -0.6543454373       -1.3387558830
 O         -1.3551383988       -0.9461699935       -2.1700030213
 O         -3.7167649573       -1.2624733331        1.9103673976
 C         -1.5323613051       -2.3076550867        0.4421078815
 C         -0.2006753825       -1.6707770220        0.7535219992
 C         -0.0086697621       -1.0563197680        1.9879166132
 C          1.1721037056       -0.3961002423        2.2715559552
 C          2.1809925833       -0.3229967688        1.3265855266
 C          1.9912500141       -0.9164317265        0.0864082223
 C          0.8155437328       -1.6023734299       -0.1870752707
 H          0.6755293408       -2.0456256274       -1.1603960861
 N          3.0022584324       -0.8243443687       -0.8882538422
 S          3.6069499530        0.7079142665       -1.2236559606
 O          2.6368503777        1.7416168210       -0.9432688197
 O          4.0998745481        0.6348341563       -2.5820341232
 C          4.9963441347        0.8579467854       -0.1178942731
 C          5.9766101219       -0.1138168081       -0.1694716290
 C          7.0667813732       -0.0104790407        0.6795956623
 C          7.1597459834        1.0581996530        1.5589045390
 C          6.1695625842        2.0278732242        1.5957466510
 C          5.0758323975        1.9297964114        0.7494594950
 H          4.2787064899        2.6563720403        0.7465013845
 H          6.2434585382        2.8585300629        2.2791739898
 H          8.0090661774        1.1362699862        2.2191070793
 H          7.8390794718       -0.7622521536        0.6533813308
 H          5.8675912373       -0.9250326250       -0.8696181491
 H          2.7624014465       -1.2956016280       -1.7494359708
 H          3.0994798043        0.2009544620        1.5348329484
 H          1.3083680715        0.0711286284        3.2350261497
 H         -0.8066485091       -1.0897732990        2.7164471978
 H         -1.9826566851       -2.6356173011        1.3885424602
 C         -1.4412058079       -3.4971012360       -0.4899169395
 C         -0.8512365954       -4.7774419428        0.0188254062
 C         -2.3226040978       -4.6843015892       -0.2483243207
 H         -2.7272608850       -5.2060346747       -1.1026424859
 H         -2.9945755147       -4.6440944303        0.5963108965
 H         -0.2430639654       -5.3670368087       -0.6498975185
 H         -0.5230620331       -4.7982411155        1.0469451973
 H         -1.2534635702       -3.2259335316       -1.5214330769
