  62
        -98.93562187
 C         -1.7147852372       -1.1158340705       -0.0567312626
 C         -2.2912951390       -0.1944607335        0.8489251796
 C         -3.6380994777        0.3085078812        0.5253896443
 C         -4.2127510955       -0.0701979177       -0.6305346049
 C         -5.5682385406        0.2980952838       -1.1786400706
 C         -5.9840939503        1.7726695410       -1.0631423921
 C         -7.0987935321        2.0129581504       -0.0433768968
 H         -7.6235607727        2.9331689988       -0.3098844976
 H         -7.8187663333        1.1951824148       -0.1163554456
 C         -6.6352258133        2.1494756230        1.4058719593
 H         -6.1201862587        3.1044235226        1.5318877718
 H         -7.5269119626        2.1762334421        2.0366807310
 C         -5.7142536452        1.0346544396        1.9057351460
 H         -5.7849781492        1.0072326864        2.9951965128
 H         -6.0543341226        0.0662619114        1.5406460842
 C         -4.2376011386        1.2452304650        1.5387409891
 H         -4.0793528469        2.2749541125        1.2047278721
 H         -3.6163773887        1.1217111107        2.4313347478
 H         -5.1156671288        2.3861405215       -0.8277498844
 H         -6.3484569682        2.0925633266       -2.0407583161
 H         -5.5370598310        0.0031197155       -2.2299928814
 H         -6.3183423039       -0.3365284769       -0.6999962231
 O         -3.5962337639       -0.9173047028       -1.5019540356
 C         -2.3471578503       -1.4611518894       -1.2507000319
 O         -1.9322122564       -2.2146014598       -2.1498662823
 O         -1.7050856199        0.1912333848        1.8977119786
 C         -0.3376538987       -1.6693085792        0.2698046641
 C          0.6776923492       -0.9812638578       -0.6080817665
 C          1.2104182208       -1.5546050355       -1.7552029094
 C          2.1291467131       -0.8589108503       -2.5226825104
 C          2.5456557755        0.4082826169       -2.1564380152
 C          2.0187358141        0.9879914102       -1.0096417124
 C          1.0902035140        0.2960763895       -0.2485610052
 H          0.6719987660        0.7506453936        0.6405077682
 N          2.4905490418        2.2555517883       -0.5982198167
 S          4.1246603839        2.2611133340       -0.2021261342
 O          4.3019943343        3.3531613590        0.7284876463
 O          4.9034476613        2.3273404818       -1.4124240567
 C          4.3705797127        0.6871407705        0.6013142990
 C          3.8844167335        0.5287085927        1.8838755769
 C          3.9606185187       -0.7190404774        2.4807559201
 C          4.5091580732       -1.7843457745        1.7830771247
 C          4.9970403681       -1.6079241128        0.4977138202
 C          4.9267641740       -0.3613604284       -0.1029739807
 H          5.2919871512       -0.1824531089       -1.1006330315
 H          5.4232754923       -2.4384824703       -0.0411204033
 H          4.5567264572       -2.7579668972        2.2453525970
 H          3.5831110901       -0.8580037633        3.4813227060
 H          3.4635030278        1.3798641797        2.3954375505
 H          1.9574392692        2.6382325383        0.1705714053
 H          3.2766023934        0.9548398839       -2.7304375719
 H          2.5306729616       -1.3128936902       -3.4157170273
 H          0.8910017702       -2.5387024071       -2.0549662004
 H         -0.1439492172       -1.3571841728        1.3052395671
 C         -0.2708876589       -3.1794830509        0.1999750051
 C          0.9243914158       -3.8714424261        0.7828528410
 C         -0.4072399584       -3.9756324094        1.4616100212
 H         -0.9361025737       -4.9160494411        1.4205719362
 H         -0.5565021275       -3.4323293843        2.3832061935
 H          1.3134667869       -4.7420827715        0.2782464541
 H          1.6806908337       -3.2494805000        1.2380089503
 H         -0.7126269565       -3.5914270550       -0.6983539884
