  62
        -98.93247055
 C         -2.3608597846       -0.7235331606        0.1513140312
 C         -2.6759697830        0.6604485384        0.1511653466
 C         -3.9637158530        1.0547442691       -0.4415596410
 C         -4.7676042399        0.1064480974       -0.9515545711
 C         -6.1006810705        0.2689709373       -1.6381224893
 C         -7.0945462591        1.2668187818       -1.0288441494
 C         -7.0406844207        1.3829240573        0.5014352917
 H         -8.0493335168        1.2667885117        0.9022052193
 H         -6.4303634764        0.5792182714        0.9168392034
 C         -6.4988027795        2.7323770892        0.9788970808
 H         -6.8215374907        2.8959133694        2.0099389878
 H         -6.9406211242        3.5232550694        0.3688763179
 C         -4.9772826712        2.8741491311        0.9544292776
 H         -4.7312420510        3.9089049352        1.2052461869
 H         -4.5328577136        2.2439612931        1.7297713608
 C         -4.2994527662        2.5171793534       -0.3786518745
 H         -4.9073868799        2.8267164527       -1.2253516608
 H         -3.3442507383        3.0476242280       -0.4225334341
 H         -6.9357637494        2.2519808257       -1.4649853928
 H         -8.0913851895        0.9448549987       -1.3347436013
 H         -6.5410339615       -0.7309847639       -1.6412384904
 H         -5.9136485422        0.5415200316       -2.6808389897
 O         -4.4275890241       -1.2111519474       -0.9337449253
 C         -3.2346533300       -1.6643453375       -0.3920986962
 O         -3.1015483327       -2.9018962587       -0.4656296417
 O         -1.9064375582        1.5379404162        0.6283573305
 C         -1.0333702865       -1.1177193343        0.7734824711
 C          0.0428626555       -1.3404340712       -0.2627973233
 C         -0.0646408395       -2.3401122081       -1.2244072528
 C          0.9569319668       -2.5474220269       -2.1328581491
 C          2.1092987393       -1.7825165092       -2.0880415156
 C          2.2232250748       -0.7773506199       -1.1351427666
 C          1.1873662211       -0.5572142461       -0.2379007249
 H          1.2862547285        0.2354427214        0.4897168915
 N          3.3712017540        0.0279920139       -1.0723460936
 S          3.9090051859        0.5282129546        0.4486381560
 O          3.8010352394       -0.5606748767        1.3930189915
 O          3.2327273566        1.7505311808        0.8039929108
 C          5.6225603667        0.8690818543        0.0917530138
 C          5.9605418334        2.0954203495       -0.4487772946
 C          7.2881600879        2.3489817723       -0.7549970099
 C          8.2497116550        1.3776408262       -0.5184297644
 C          7.8955345943        0.1523367832        0.0260551021
 C          6.5694846432       -0.1082855706        0.3339028708
 H          6.2489091605       -1.0420379279        0.7673165724
 H          8.6456942574       -0.5992440080        0.2121235743
 H          9.2822264524        1.5781574946       -0.7570657805
 H          7.5677653417        3.3015709582       -1.1752591131
 H          5.1801638336        2.8218236502       -0.6058581500
 H          4.1280877346       -0.3183350219       -1.6458723030
 H          2.9116614348       -1.9572882472       -2.7887738169
 H          0.8609020644       -3.3248439932       -2.8758723180
 H         -0.9561463096       -2.9473353527       -1.2524501440
 H         -0.7289931667       -0.2492291135        1.3746370455
 C         -1.1194139521       -2.3245490160        1.6896890044
 C          0.0108071089       -2.5864512088        2.6381864744
 C         -1.3151171662       -2.1221881248        3.1604820688
 H         -1.9324230894       -2.8252859766        3.6993652562
 H         -1.3931274914       -1.1063065119        3.5203348468
 H          0.3038893515       -3.6094078820        2.8182152458
 H          0.8365856127       -1.8890690295        2.6383325080
 H         -1.6025864271       -3.1781325494        1.2325516896
