  62
        -98.93679412
 C          2.4176411966        1.2375375570        0.1063356988
 C          2.3059756726       -0.0477517313       -0.4789357015
 C          3.5743844919       -0.6837077768       -0.8734198976
 C          4.7357379098       -0.0403437880       -0.6599592801
 C          6.0962014497       -0.5947923367       -0.9664491853
 C          6.6768513446       -1.3408493875        0.2430768053
 C          5.7117534729       -2.3471233348        0.8699214427
 H          6.2390185451       -2.8338016769        1.6932250824
 H          4.8659202682       -1.8085307396        1.3035034429
 C          5.1865270111       -3.4131586455       -0.1016498087
 H          5.2330755317       -4.3875799184        0.3890118343
 H          5.8294736744       -3.4621057078       -0.9811678007
 C          3.7368755648       -3.2081698468       -0.5458068719
 H          3.0994855851       -3.0641958785        0.3305230705
 H          3.4018674937       -4.1205225925       -1.0465710329
 C          3.4931463169       -2.0418582335       -1.5118782091
 H          4.1810188894       -2.1128978881       -2.3571149984
 H          2.4709693278       -2.1339271126       -1.8916432389
 H          6.9477198147       -0.6063209397        1.0049090726
 H          7.5865190228       -1.8545587291       -0.0728655271
 H          6.7562860059        0.2361358636       -1.2208951641
 H          6.0251870635       -1.2647705078       -1.8210232345
 O          4.8041968966        1.1861968372       -0.0820138393
 C          3.6568548524        1.8441813995        0.3289219488
 O          3.8678600600        2.9436156873        0.8779420844
 O          1.2154459428       -0.6476604068       -0.6663505487
 C          1.1964474147        2.0140138179        0.5683592596
 C          0.2321993269        1.0972168662        1.2809455946
 C          0.6684410067        0.4345057446        2.4255284385
 C         -0.1699644003       -0.4274087898        3.1043794154
 C         -1.4628318824       -0.6411700315        2.6607257118
 C         -1.9137997821        0.0267422662        1.5280662541
 C         -1.0686929849        0.8932233207        0.8490530568
 H         -1.4325267703        1.3751341594       -0.0419206874
 N         -3.2430845770       -0.1398530451        1.1010068401
 S         -3.6805094753        0.0041371190       -0.5200068410
 O         -2.9665524813       -0.9490150808       -1.3391210525
 O         -3.5889316144        1.3883113483       -0.9111100666
 C         -5.3971823582       -0.4670788493       -0.3959051417
 C         -6.3154246055        0.4766970582        0.0236079013
 C         -7.6455805996        0.1088657757        0.1485996203
 C         -8.0341070954       -1.1896133306       -0.1461840775
 C         -7.1021747205       -2.1254139823       -0.5688716539
 C         -5.7699225738       -1.7639140661       -0.6944672620
 H         -5.0122853045       -2.4545964841       -1.0288245184
 H         -7.4074222953       -3.1329978830       -0.8012497743
 H         -9.0701230704       -1.4733466780       -0.0489702075
 H         -8.3735211625        0.8345019285        0.4738663708
 H         -5.9686039575        1.4752519360        0.2320603271
 H         -3.6800559263       -0.9544774157        1.5105302688
 H         -2.1167510645       -1.3206874480        3.1861225022
 H          0.1863645950       -0.9433868913        3.9835932950
 H          1.6835560751        0.5941886049        2.7651520944
 H          1.5807591224        2.7366392105        1.3082046743
 C          0.5352493151        2.8312166816       -0.5317199801
 C          1.3191758269        3.3561018428       -1.6961310175
 C          0.2996086983        2.2786148085       -1.9039562406
 H         -0.6269244103        2.5263663588       -2.4024350097
 H          0.6388766176        1.2738616968       -2.1025346284
 H          1.0990152833        4.3505295263       -2.0540631506
 H          2.3645216620        3.0903041601       -1.7585402160
 H         -0.2344604468        3.4895007630       -0.1391323888
