  62
        -98.94070782
 C          2.5104994385        0.2316517062       -0.4830457654
 C          2.2312022952        0.9016883046        0.7294679642
 C          1.6095085379        2.2353948104        0.6198860633
 C          1.2747279342        2.6974720327       -0.5969097407
 C          0.5406708921        3.9648095864       -0.9434042145
 C         -0.9808226385        3.7295687077       -0.9455471986
 C         -1.6722792808        4.0175442323        0.3849267389
 H         -1.6047838176        5.0862302170        0.6020487702
 H         -2.7288402813        3.7692280449        0.2604420691
 C         -1.1206417089        3.2288288429        1.5741084700
 H         -0.9587334556        2.1919159103        1.2734880421
 H         -1.8812963111        3.2276356278        2.3578731004
 C          0.1770585504        3.8180880291        2.1443276652
 H          0.3370158840        4.8138494678        1.7313849897
 H          0.0741973609        3.9435421862        3.2247898096
 C          1.4250286360        2.9574841309        1.9281326062
 H          2.3149095672        3.5748269227        2.0995123466
 H          1.4489101761        2.1645430989        2.6828431320
 H         -1.1639063533        2.6887139931       -1.2303024071
 H         -1.4329984850        4.3647922593       -1.7106351315
 H          0.8131501824        4.7700477237       -0.2674617320
 H          0.8561925955        4.2343646298       -1.9536020738
 O          1.5309933820        2.0005706201       -1.7418288173
 C          2.1459729035        0.7656837648       -1.7171982667
 O          2.3223287269        0.2512524109       -2.8430468610
 H          0.5093802654       -1.3205624197       -1.0360256794
 C          0.7525842825       -1.9690682212       -0.2055738587
 C          2.0706456009       -2.0675070099        0.2219574081
 C          2.3654160350       -2.9316410424        1.2672827229
 C          1.3519936762       -3.6412324629        1.8905608454
 C          0.0326022044       -3.4852539857        1.5074840498
 C         -0.2681720047       -2.6372273084        0.4467870005
 N         -1.5913012685       -2.4344013266        0.0156128370
 S         -1.9687008817       -0.8800809742       -0.5413917649
 O         -1.7128576052       -0.8287402921       -1.9608540052
 O         -1.3165352270        0.1186900100        0.2707316161
 C         -3.7305451268       -0.8435504115       -0.2664474955
 C         -4.2523808954       -0.0304291691        0.7208637664
 C         -5.6232244793       -0.0247210245        0.9289294499
 C         -6.4426507388       -0.8302266362        0.1529608829
 C         -5.9037309225       -1.6413690642       -0.8352215671
 C         -4.5350052358       -1.6496109967       -1.0506529445
 H         -4.0720580255       -2.2531128792       -1.8140042779
 H         -6.5441035738       -2.2645467669       -1.4382721464
 H         -7.5085939300       -0.8239595044        0.3169449330
 H         -6.0445014192        0.6076365330        1.6936354470
 H         -3.5744306693        0.5807209065        1.2951934604
 H         -2.2771686721       -2.7734202225        0.6767974577
 H         -0.7579269966       -4.0098185144        2.0221867292
 H          1.5920529604       -4.3057423349        2.7067377676
 H          3.3829571484       -3.0351271368        1.6068122120
 C          3.0806214199       -1.1777961448       -0.4636463261
 H          3.1558564382       -1.4885230079       -1.5164985722
 C          4.4575397515       -1.2126210605        0.1615914454
 C          5.4250058905       -2.2927394641       -0.2163645969
 C          5.6474599978       -0.8883400114       -0.6888743243
 H          6.4520857185       -0.3163196174       -0.2521276336
 H          5.4649964725       -0.6609887987       -1.7294130150
 H          5.0987130367       -3.0241440771       -0.9403109009
 H          6.0825573887       -2.6854602062        0.5442517027
 H          4.4594701675       -0.8532742920        1.1837487548
 O          2.4913982195        0.4126904171        1.8613899111
