  62
        -98.93700875
 C         -1.8024196799       -0.1161092091        0.4392062285
 C         -2.7349167987       -0.7392037377       -0.4218548326
 C         -4.0391168973       -0.0633371848       -0.5950780085
 C         -4.2625784809        1.1005999857        0.0409365636
 C         -5.5120068714        1.9404385203        0.0414469485
 C         -6.6187698528        1.3527286996        0.9323877810
 C         -6.8160321873       -0.1553366803        0.8016107405
 H         -5.8758084902       -0.6603530001        1.0302015452
 H         -7.5411267681       -0.4620366567        1.5601160221
 C         -7.3308921720       -0.6289005073       -0.5554361391
 H         -7.5035553586       -1.7054640599       -0.4789621430
 H         -8.2925234683       -0.1525950739       -0.7593601006
 C         -6.4035269672       -0.3800172995       -1.7466443517
 H         -6.7840307904       -0.9732197957       -2.5833887651
 H         -6.4423271196        0.6587303287       -2.0633869965
 C         -4.9569991613       -0.8134784435       -1.5306888542
 H         -4.9431001946       -1.8560784669       -1.1936548750
 H         -4.4468375751       -0.8181976177       -2.5014374140
 H         -7.5542589829        1.8665320151        0.7047481148
 H         -6.3616977408        1.5654057616        1.9730575021
 H         -5.2310084936        2.9194403434        0.4361787417
 H         -5.8665031830        2.0834389567       -0.9749772298
 O         -3.3279560604        1.6730876054        0.8535261328
 C         -2.0978390858        1.0917069779        1.0767226772
 O         -1.3623216851        1.7316360818        1.8569160989
 H          1.5680157458        1.1281803551        0.6654516859
 C          1.4865054873        0.5872744732       -0.2659072385
 C          0.5134169503       -0.3907364288       -0.4198509546
 C          0.4128387699       -1.0472364394       -1.6427155162
 C          1.2649778446       -0.7244866193       -2.6822751601
 C          2.2430403580        0.2412225202       -2.5207806152
 C          2.3507241894        0.9048161501       -1.3050794901
 N          3.3332830203        1.8936665726       -1.1106516405
 S          4.3299945461        1.7689418759        0.2286868683
 O          3.6035966240        2.0968024893        1.4280117435
 O          5.4668924227        2.6075203787       -0.0819164605
 C          4.8172288054        0.0537503482        0.2414685196
 C          5.8160622332       -0.3502588248       -0.6230494107
 C          6.1476254115       -1.6937897617       -0.6832564800
 C          5.4698939294       -2.6073703977        0.1099182393
 C          4.4707567073       -2.1860514941        0.9733782341
 C          4.1385020563       -0.8422571701        1.0416077464
 H          3.3714716262       -0.4717750940        1.7022916661
 H          3.9446677189       -2.8970900592        1.5901105900
 H          5.7227144456       -3.6545062721        0.0578474082
 H          6.9280873666       -2.0246567786       -1.3492927613
 H          6.3229104774        0.3936754970       -1.2161650158
 H          3.8842137182        2.0885523077       -1.9348245097
 H          2.9105840380        0.4898223991       -3.3319546369
 H          1.1707619154       -1.2351745585       -3.6285121368
 H         -0.3597220738       -1.7869483606       -1.7799541462
 C         -0.4230626153       -0.6919890840        0.7260202295
 H         -0.0571403559       -0.1439000158        1.6052318785
 C         -0.4583303077       -2.1690856894        1.0637866240
 C          0.6509129737       -2.7543486522        1.8821272530
 C         -0.7128980454       -2.5848647431        2.4800900685
 H         -1.3144099208       -3.4633885872        2.6590745214
 H         -0.8558762255       -1.8028861732        3.2125412828
 H          0.9896408792       -3.7522921558        1.6509436516
 H          1.4302468584       -2.0856036107        2.2149644422
 H         -0.8916918526       -2.7821442404        0.2856536338
 O         -2.5236480055       -1.8213896978       -1.0296035251
