  62
        -98.94110543
 C          1.8906988067        0.9062450873        0.2721643680
 C          2.3112152673       -0.0878542290        1.1901522998
 C          2.5868844742       -1.4168921606        0.6311484537
 C          2.3653846431       -1.6352110933       -0.6775779237
 C          2.6435490649       -2.9263889485       -1.3907178467
 C          4.0670520965       -2.9501157363       -1.9655143343
 C          5.1453473689       -2.5427058562       -0.9613380175
 H          6.1091230625       -2.6239552942       -1.4683109667
 H          5.0074263271       -1.4913340610       -0.6987635673
 C          5.1691981552       -3.3853883061        0.3214888505
 H          4.6275653105       -4.3182546127        0.1617385499
 H          6.2046480541       -3.6453873108        0.5506418461
 C          4.6046992939       -2.6785418157        1.5552653210
 H          4.8640663019       -3.2715992788        2.4361672324
 H          5.0801269834       -1.7008522299        1.6676643418
 C          3.0837423095       -2.4780571009        1.5724740687
 H          2.8015178446       -2.1425650387        2.5750131335
 H          2.5827929589       -3.4289317679        1.3777621733
 H          4.2725888512       -3.9562897037       -2.3350902297
 H          4.1088199962       -2.2608708196       -2.8119955126
 H          1.9255469139       -3.0261105439       -2.2066391883
 H          2.5049744237       -3.7534146442       -0.6967700444
 O          1.9032882817       -0.6763998918       -1.5178329152
 C          1.6444418473        0.6117826441       -1.0703398590
 O          1.2205157410        1.3756501182       -1.9578651916
 O          2.4492334491        0.1285427639        2.4255368018
 C          1.5713757943        2.2850011620        0.8236561705
 C          0.2113193953        2.7147819970        0.3337076640
 C         -0.0399099735        3.9120234457       -0.3218436553
 C         -1.3148159894        4.2041092118       -0.7758372050
 C         -2.3540161305        3.3105673817       -0.5996139879
 C         -2.1142167938        2.1132668053        0.0670658149
 C         -0.8458938476        1.8375990776        0.5455468720
 H         -0.6671745509        0.9016754182        1.0571989048
 N         -3.1526872057        1.1887677896        0.2832847404
 S         -2.7729783186       -0.4558886238        0.3029176214
 O         -2.2725398988       -0.7985321338        1.6119948540
 O         -1.9289187305       -0.8025470965       -0.8188304337
 C         -4.4030356592       -1.1486706236        0.0905259309
 C         -4.8184246698       -1.5313120306       -1.1708283098
 C         -6.1003337310       -2.0339603053       -1.3310146731
 C         -6.9416198663       -2.1410445118       -0.2337595695
 C         -6.5103070094       -1.7537047259        1.0263829921
 C         -5.2295106466       -1.2515785049        1.1936174959
 H         -4.8458629988       -0.9458321458        2.1529159954
 H         -7.1659345580       -1.8410798552        1.8776099708
 H         -7.9387542992       -2.5316420038       -0.3613514839
 H         -6.4365251085       -2.3387051875       -2.3089547408
 H         -4.1256777434       -1.4362964553       -1.9919101917
 H         -3.9607374833        1.3705752151       -0.2969328119
 H         -3.3409556627        3.5302382190       -0.9775340307
 H         -1.4962194549        5.1341139325       -1.2931196887
 H          0.7657977376        4.6036447947       -0.5049054013
 H          1.5012599959        2.1289495737        1.9142950465
 C          2.6602195824        3.3242152891        0.6043018196
 C          4.0869858446        2.9146646648        0.3968160597
 C          3.3135915061        3.5305047474       -0.7282298312
 H          3.5615826704        4.5389292041       -1.0257004284
 H          2.9928490615        2.8992448060       -1.5416906552
 H          4.8625181977        3.4966255966        0.8717762588
 H          4.3001568220        1.8563112619        0.3507652184
 H          2.5017785063        4.2105744883        1.2110198956
