  62
        -98.94414302
 C         -2.4995484827       -1.1639893624       -0.0673871130
 C         -3.2219616320       -0.4136547214        0.8901632155
 C         -4.0422157994        0.6807686512        0.3594472078
 C         -4.0755553822        0.9069096568       -0.9668675287
 C         -4.8855631619        1.9667491935       -1.6634194702
 C         -4.2120447534        3.3454181279       -1.7005926537
 C         -4.1767371582        4.0880497629       -0.3642866588
 H         -5.1814816217        4.1233000692        0.0577464546
 H         -3.8757306320        5.1159608554       -0.5757582544
 C         -3.2056916279        3.4921943000        0.6647601057
 H         -2.6183363778        4.2931484296        1.1199503884
 H         -2.5008541446        2.8285308389        0.1575793947
 C         -3.8801125097        2.7228895417        1.8009979686
 H         -4.4888904816        3.4074079125        2.3957284942
 H         -3.1002353773        2.3169967887        2.4512553962
 C         -4.7648568016        1.5580728019        1.3368830019
 H         -5.6873983540        1.9382578702        0.8989910493
 H         -5.0149772709        0.9492757797        2.2092422239
 H         -4.7634654501        3.9581477209       -2.4172527466
 H         -3.1939570856        3.2267558625       -2.0786778951
 H         -5.8636546246        2.0509634851       -1.1891351207
 H         -5.0248207089        1.6245560896       -2.6910422742
 O         -3.3664945215        0.1615344919       -1.8553059151
 C         -2.5442383170       -0.8733932055       -1.4312265181
 O         -1.9248716671       -1.4444161151       -2.3474548783
 O         -3.1803804685       -0.6452747861        2.1295524224
 C         -1.6180692684       -2.3047883436        0.4047442326
 C         -0.1738629605       -2.0402366041        0.0538817179
 C          0.6737676197       -3.0087426519       -0.4671840989
 C          1.9953419049       -2.7067247386       -0.7483543894
 C          2.5007136067       -1.4413593494       -0.5158682633
 C          1.6657443015       -0.4675209811        0.0168905319
 C          0.3448482101       -0.7748557135        0.3021622730
 H         -0.3025887866       -0.0143442930        0.7232171892
 N          2.1709007913        0.8255479932        0.2512581433
 S          3.5370462215        0.9562333448        1.2231571458
 O          3.6092197323       -0.1261040998        2.1775518994
 O          3.4848436288        2.2942477686        1.7709640372
 C          4.8949440376        0.8511652798        0.0771258220
 C          4.9507479462        1.7695492489       -0.9529293698
 C          6.0068427045        1.7070110699       -1.8478603946
 C          6.9849875584        0.7352408779       -1.6964266443
 C          6.9163847952       -0.1770518516       -0.6546224285
 C          5.8617581992       -0.1210109108        0.2433784634
 H          5.7630981999       -0.8120907131        1.0651821403
 H          7.6780164351       -0.9312345652       -0.5384450040
 H          7.8056229828        0.6890994709       -2.3947736373
 H          6.0635860444        2.4148386759       -2.6591036583
 H          4.1727630809        2.5105212488       -1.0325195588
 H          1.4668406426        1.4817041386        0.5575688313
 H          3.5265786657       -1.2004347565       -0.7417305816
 H          2.6401068914       -3.4685735330       -1.1589630036
 H          0.2989435650       -4.0009485520       -0.6568293372
 H         -1.7024225380       -2.3028666450        1.5025944407
 C         -2.1382919795       -3.6269937051       -0.1190877922
 C         -1.9364202793       -4.8858757442        0.6686598702
 C         -3.2994454014       -4.2707965605        0.5755672750
 H         -4.0506608984       -4.7631692743       -0.0234201196
 H         -3.6962720854       -3.7684715405        1.4459392452
 H         -1.7539878020       -5.8055168772        0.1335122858
 H         -1.4097226130       -4.8091491787        1.6079874817
 H         -2.1070961766       -3.6858653904       -1.2011642608
