  62
        -98.94482114
 C         -1.6057436843       -1.2810772241       -0.2702039242
 C         -1.4196184068        0.1047697864       -0.4914868510
 C         -2.3020164268        1.0005154395        0.2676759596
 C         -3.1818517641        0.4954983427        1.1490950367
 C         -4.1247454396        1.2841188187        2.0169279693
 C         -5.4257786656        1.6958687480        1.3137197119
 C         -5.2815461447        2.8044589712        0.2700905970
 H         -4.7544021430        3.6504572994        0.7122628192
 H         -6.2897162838        3.1420963990        0.0217226527
 C         -4.5736797201        2.3715172106       -1.0213559375
 H         -5.1336198619        2.7393534181       -1.8840180931
 H         -4.5671657119        1.2809943921       -1.0842123220
 C         -3.1396051561        2.8826066133       -1.1596885814
 H         -3.1437439977        3.9725317484       -1.2299948830
 H         -2.7221941447        2.4848418572       -2.0878581652
 C         -2.2130903242        2.4713408664       -0.0081723340
 H         -2.4513167284        3.0394422906        0.8909971072
 H         -1.1820868904        2.6957368363       -0.2925385537
 H         -6.1168379760        2.0412958851        2.0861683143
 H         -5.8642745656        0.8105505664        0.8474198277
 H         -4.3783271046        0.6410176534        2.8626824589
 H         -3.6159977964        2.1705016571        2.3977495738
 O         -3.3050662589       -0.8408986435        1.3679389485
 C         -2.5362867638       -1.7499173608        0.6622581480
 O         -2.7745491899       -2.9425026317        0.9451689118
 H          1.1634741974       -0.6096390529       -0.3101058683
 C          1.3716426049       -1.5968073950        0.0649189638
 C          0.4781307223       -2.6289232281       -0.1873927225
 C          0.7619319184       -3.8975343153        0.3028621725
 C          1.9078249329       -4.1225574079        1.0448033064
 C          2.7737960618       -3.0833693771        1.3294171305
 C          2.4993202457       -1.8085106871        0.8430643842
 N          3.3660832118       -0.7441188820        1.1242121261
 S          2.8202507437        0.8094873134        1.4627533195
 O          3.6788139977        1.2638072668        2.5399263205
 O          1.4027683681        0.8335562151        1.7272663857
 C          3.2482808554        1.7227692640       -0.0058234815
 C          4.5591220440        2.1463719381       -0.1253631996
 C          4.9431376718        2.8396065127       -1.2606725887
 C          4.0135447299        3.0981073147       -2.2571681001
 C          2.7030327052        2.6691555617       -2.1214121162
 C          2.3113329327        1.9739075120       -0.9865005957
 H          1.2958276572        1.6278317441       -0.8677710855
 H          1.9750812885        2.8662433826       -2.8923668760
 H          4.3104780963        3.6375594357       -3.1428619789
 H          5.9620686016        3.1759074604       -1.3655537516
 H          5.2439857096        1.9369779565        0.6795643513
 H          4.1358716747       -0.9871569008        1.7305821918
 H          3.6549313174       -3.2518526656        1.9302814585
 H          2.1190040444       -5.1120046129        1.4214872235
 H          0.0673125999       -4.7038326596        0.1180957551
 C         -0.7928535322       -2.3665537109       -0.9609536739
 H         -1.4067356898       -3.2765522988       -0.9069522523
 C         -0.4914352210       -2.0809074065       -2.4185942009
 C         -0.2159069057       -3.2297852833       -3.3395736045
 C         -1.4961237804       -2.4601143199       -3.4626546153
 H         -1.6292096143       -1.8052131004       -4.3104347290
 H         -2.4093311722       -2.9318646245       -3.1289922303
 H         -0.2627656264       -4.2261458013       -2.9266378557
 H          0.5340967431       -3.1058664833       -4.1053421056
 H          0.0640872211       -1.1660121036       -2.5727359804
 O         -0.5728410344        0.5986220656       -1.2819984217
