  62
        -98.93860862
 C         -1.8221657369       -1.4885517237        0.2157536333
 C         -1.6887366461       -0.1111140646       -0.0744881635
 C         -2.8810656851        0.7144432279        0.1666147576
 C         -3.9975527779        0.1452425866        0.6555513701
 C         -5.2830689008        0.8438886020        1.0123927676
 C         -6.0583980449        1.4836429325       -0.1554164308
 C         -5.7472553075        2.9682002347       -0.3824955514
 H         -6.6768790535        3.4889504167       -0.6208907626
 H         -5.3790555753        3.3965931075        0.5504568204
 C         -4.7601566025        3.2775423002       -1.5120906318
 H         -5.2767926495        3.1916856633       -2.4708144298
 H         -4.4417834683        4.3165300530       -1.4031259373
 C         -3.5211046044        2.3844131825       -1.5792731743
 H         -2.8190154969        2.8282758969       -2.2881331788
 H         -3.7937110304        1.4082195978       -1.9876508635
 C         -2.8138633271        2.1610585824       -0.2283995669
 H         -1.7542162617        2.4074792979       -0.3213316674
 H         -3.2503910802        2.7924984125        0.5439591488
 H         -5.8805854829        0.9125763427       -1.0663164835
 H         -7.1194848335        1.3906524397        0.0813955466
 H         -5.9084961549        0.0797705076        1.4784237201
 H         -5.0703692571        1.6057249168        1.7657583584
 O         -4.0771793338       -1.1848689948        0.9366082383
 C         -3.0053656420       -2.0326348921        0.7148482995
 O         -3.2217617556       -3.2261069000        1.0070891368
 H          1.9365304378       -1.8676713208       -0.8604702892
 C          1.7832339070       -1.7276338660        0.1959481509
 C          0.5450723043       -1.9574831439        0.7735018715
 C          0.4012388128       -1.7575691793        2.1450715840
 C          1.4648589586       -1.3276856048        2.9135723029
 C          2.6947651949       -1.0775565318        2.3287558935
 C          2.8504894079       -1.2781762862        0.9636054273
 N          4.0926522259       -1.0524607359        0.3389979190
 S          4.1885980693        0.0532659233       -0.9168065228
 O          3.3406249839       -0.3608757987       -2.0029880174
 O          5.6024616765        0.1487175040       -1.2109742422
 C          3.6296927439        1.5909305982       -0.2048403378
 C          4.5824825703        2.4962065749        0.2231247820
 C          4.1710256952        3.6678307218        0.8362839620
 C          2.8177707299        3.9083868663        1.0217747715
 C          1.8764552762        2.9868401314        0.5913189269
 C          2.2785992965        1.8135798393       -0.0295406623
 H          1.5535288942        1.0917170131       -0.3714079751
 H          0.8220602022        3.1639209819        0.7339942957
 H          2.4941874504        4.8181556226        1.5027327775
 H          4.9030425294        4.3858302055        1.1696198666
 H          5.6226503067        2.2670104905        0.0558670027
 H          4.8450547681       -0.8732712303        0.9898904031
 H          3.5265482139       -0.7340387149        2.9250805425
 H          1.3356901198       -1.1784564103        3.9749205396
 H         -0.5632600316       -1.9444415280        2.5983553822
 C         -0.6514275351       -2.4264606442       -0.0177539013
 H         -0.9612384074       -3.4047265196        0.3781309145
 C         -0.3813421756       -2.5670835791       -1.5011080744
 C          0.2530925854       -3.8153015280       -2.0338129855
 C         -1.1955385919       -3.5381651747       -2.2995767108
 H         -1.4940794362       -3.2615642454       -3.2997530648
 H         -1.9349225361       -4.1197781971       -1.7678713915
 H          0.9531732034       -3.7268903808       -2.8511527749
 H          0.4985937040       -4.5924675122       -1.3257418303
 H         -0.1239688989       -1.6258775708       -1.9744653008
 O         -0.6270664536        0.4097944828       -0.5040758028
