  62
        -98.94092236
 C          2.2814942425       -0.5375202398       -0.1414135393
 C          3.5586346173       -1.0615877924       -0.4541883584
 C          4.6375817154       -0.0768172938       -0.6060747393
 C          4.3559050384        1.2320500411       -0.4703287921
 C          5.3672944843        2.3382117045       -0.5482895457
 C          5.9430942194        2.6623720047        0.8373867163
 C          6.4150261878        1.4323770506        1.6128945020
 H          6.8286021061        1.7844418627        2.5604478930
 H          5.5502641208        0.8090840824        1.8521726625
 C          7.4640686140        0.5843480714        0.8801661749
 H          7.9200806132        1.1692215906        0.0806550923
 H          8.2569982852        0.3237318341        1.5842678721
 C          6.9293351964       -0.7287577651        0.3056617798
 H          6.3886304797       -1.2750234354        1.0826180976
 H          7.7836229062       -1.3425081724        0.0080886352
 C          6.0126763028       -0.5977820823       -0.9172600917
 H          6.4967234895        0.0203849295       -1.6758783914
 H          5.8659818204       -1.5996159254       -1.3312594534
 H          6.7753877536        3.3571701129        0.7112898308
 H          5.1691285482        3.1616126429        1.4250596740
 H          6.1666882177        2.0455699099       -1.2261800048
 H          4.8735712096        3.2273315520       -0.9440042756
 O          3.1102618236        1.6995835636       -0.1969011712
 C          2.0440908855        0.8307277136       -0.0142864426
 O          0.9628893208        1.3933522556        0.2465251561
 H         -1.5545618556       -0.9884396414        0.5543137459
 C         -1.2936386851       -0.9332931349       -0.4882373928
 C          0.0081094389       -1.1627212668       -0.9037231940
 C          0.3003917062       -1.0841252530       -2.2635431128
 C         -0.6817163437       -0.7618881694       -3.1787125128
 C         -1.9743783975       -0.5046915144       -2.7563181628
 C         -2.2805715809       -0.5928769455       -1.4040669604
 N         -3.6026128317       -0.3838459517       -0.9637178776
 S         -3.8993559626        0.5392886981        0.4196366978
 O         -3.4088797410        1.8886346462        0.2424412225
 O         -3.4311709430       -0.1740013380        1.5797747973
 C         -5.6834403524        0.5327582216        0.3985728876
 C         -6.3382473442       -0.6288356447        0.7621680723
 C         -7.7231562691       -0.6557511121        0.7283417576
 C         -8.4268989605        0.4728692945        0.3342036556
 C         -7.7562275818        1.6318021345       -0.0256803949
 C         -6.3706101615        1.6646225089        0.0043142113
 H         -5.8062154621        2.5443620707       -0.2606681460
 H         -8.3055497300        2.5085949892       -0.3287115718
 H         -9.5049298774        0.4496333083        0.3095735176
 H         -8.2483517650       -1.5542904671        1.0094254867
 H         -5.7499300434       -1.4775965947        1.0690825718
 H         -4.1938880924       -0.0458000266       -1.7129181365
 H         -2.7400514960       -0.2389483519       -3.4697812410
 H         -0.4391304615       -0.6995781909       -4.2290662193
 H          1.3147997186       -1.2705945791       -2.5900487361
 C          1.1226332581       -1.4979283160        0.0554915725
 H          1.5173287257       -2.4909253137       -0.2075035302
 C          0.6929530962       -1.5152943967        1.5068863562
 C          0.0420707378       -2.7350974640        2.0847139246
 C          1.4419255598       -2.3744334136        2.4792917190
 H          1.6178895142       -1.9934174447        3.4741518027
 H          2.2535638106       -2.9709856298        2.0888185588
 H         -0.0973797815       -3.5819932291        1.4299963224
 H         -0.7499205264       -2.5990894246        2.8057661505
 H          0.3547200458       -0.5443970849        1.8547442333
 O          3.7831908368       -2.2926854461       -0.6041636985
