  62
        -98.94576843
 C         -2.0025125878       -1.5139446586       -0.0640959016
 C         -1.7086780914       -0.2807764573       -0.6958167854
 C         -2.8236677547        0.6721086991       -0.7676898578
 C         -4.0384912558        0.3187421482       -0.3101604948
 C         -5.2790119775        1.1697391143       -0.3467377906
 C         -5.4035030295        2.1410253367        0.8351643121
 C         -4.4393829692        3.3275553158        0.8048258769
 H         -4.5151401326        3.8305083412       -0.1596624604
 H         -4.7761924972        4.0330066668        1.5671147203
 C         -2.9752923895        2.9592134892        1.0838110762
 H         -2.5532782084        3.6654886188        1.8022184115
 H         -2.9303375663        1.9704428949        1.5461374944
 C         -2.0701253150        2.9712206743       -0.1482628953
 H         -1.0721714644        2.6486779923        0.1589228158
 H         -1.9971949076        3.9900324099       -0.5348878785
 C         -2.5328325429        2.0485411045       -1.2835276658
 H         -3.4085733293        2.4665463164       -1.7792956532
 H         -1.7209710067        1.9637322241       -2.0095170802
 H         -5.2639040109        1.5813926854        1.7631110801
 H         -6.4248675351        2.5288523273        0.8325298779
 H         -6.1283019472        0.4835408555       -0.3187640573
 H         -5.3139114496        1.7273721090       -1.2829615889
 O         -4.2906011363       -0.9003315008        0.2390309791
 C         -3.2745709316       -1.8271504473        0.4122700766
 O         -3.6254076734       -2.8758876694        0.9911971040
 O         -0.5823167794        0.0096880586       -1.1728043622
 C         -0.8989382866       -2.5403064819        0.1213493674
 C          0.2736078239       -1.8792860118        0.8032519797
 C          0.0549890750       -1.2056993229        2.0024672133
 C          1.0837487575       -0.5395111719        2.6392518477
 C          2.3561009336       -0.5285390374        2.0941732259
 C          2.5863475431       -1.2041341065        0.9044527216
 C          1.5522591330       -1.8824596906        0.2713456859
 H          1.7512008637       -2.3986831462       -0.6545940656
 N          3.8750792491       -1.1931443919        0.3388839464
 S          4.6249201589        0.2931405860        0.1527028082
 O          5.6299602528        0.0785883713       -0.8648251549
 O          5.1113324213        0.7461182889        1.4321956039
 C          3.3601029691        1.3964995195       -0.4480058451
 C          2.9082165625        1.2231478502       -1.7407319172
 C          1.9093186581        2.0533376927       -2.2192723122
 C          1.3793766124        3.0361483968       -1.3990087794
 C          1.8407494891        3.1952392954       -0.1019710278
 C          2.8399217045        2.3670128494        0.3827509815
 H          3.2285226396        2.4605098209        1.3837586472
 H          1.4224159874        3.9593633920        0.5340085180
 H          0.5987392395        3.6798119747       -1.7727607981
 H          1.5418851027        1.9268733122       -3.2247522763
 H          3.3500521157        0.4549910727       -2.3551289371
 H          3.9417972219       -1.7257033731       -0.5167032232
 H          3.1697971238       -0.0061389536        2.5702779201
 H          0.8947717233       -0.0185124138        3.5658179231
 H         -0.9423318492       -1.2019441204        2.4221101782
 H         -1.3029387718       -3.3123236010        0.7916762893
 C         -0.5578371133       -3.1797511974       -1.2084339263
 C          0.0348992463       -4.5554709965       -1.2548860280
 C         -1.3825453512       -4.3343373970       -1.6884398852
 H         -1.6173972827       -4.3987692556       -2.7403684591
 H         -2.1784218248       -4.6764778102       -1.0430497300
 H          0.7716425352       -4.7772428903       -2.0125428869
 H          0.2046769241       -5.0588686140       -0.3151108919
 H         -0.2365049642       -2.4559782159       -1.9490726039
