  62
        -98.93689236
 C         -0.3839659209       -1.7922967709       -0.0448020919
 C         -1.5420539616       -1.7508563931        0.7646167340
 C         -2.7344120978       -1.1001874981        0.1909133132
 C         -2.6314141556       -0.4866999053       -1.0028415077
 C         -3.6564332147        0.2395905306       -1.8497927649
 C         -5.0827261201        0.4398647766       -1.3450009147
 C         -5.2272573287        1.4854576539       -0.2384277372
 H         -5.0849677697        2.4743228750       -0.6815216522
 H         -6.2479325110        1.4397025553        0.1468614491
 C         -4.2460347226        1.3579062505        0.9235230139
 H         -4.4126085937        2.2042910734        1.5942728215
 H         -3.2235719209        1.4276804601        0.5513130792
 C         -4.3701967398        0.0828062114        1.7502928566
 H         -3.7040463357        0.1792240242        2.6115528872
 H         -5.3902831817       -0.0216837363        2.1255224340
 C         -3.9906230581       -1.2076411593        1.0110158765
 H         -3.7928317165       -1.9778378972        1.7625651098
 H         -4.8146059637       -1.5606924349        0.3948052728
 H         -5.6722240258        0.7820523743       -2.1999501928
 H         -5.5035887308       -0.5129207723       -1.0371401285
 H         -3.6970119312       -0.3192534848       -2.7912875398
 H         -3.2177141933        1.2119295171       -2.0958044062
 O         -1.4589839283       -0.4745476918       -1.7090954079
 C         -0.3466040005       -1.1980894181       -1.3048840219
 O          0.5812354917       -1.2269261686       -2.1343250623
 O         -1.5931855960       -2.2715871137        1.9120088781
 C          0.7889465842       -2.6248652926        0.4253509792
 C          2.1112453611       -1.8972144374        0.4430334165
 C          3.3011868000       -2.6206701107        0.4561339961
 C          4.5223848778       -1.9784212891        0.5294404699
 C          4.5851557000       -0.5986261484        0.5825846036
 C          3.4065880927        0.1357539511        0.5692353893
 C          2.1803845647       -0.5120698188        0.5120635718
 H          1.2725680843        0.0761715518        0.5036140955
 N          3.4436431967        1.5409797004        0.6421568459
 S          2.6322477533        2.4234912870       -0.5308860918
 O          2.5477220626        1.7112195179       -1.7822570221
 O          3.3377567468        3.6904651092       -0.5729103553
 C          1.0200244606        2.7435284391        0.1431562863
 C          0.9177588269        3.1081659090        1.4709856262
 C         -0.3176778287        3.4949815021        1.9648408137
 C         -1.4170913032        3.5318801713        1.1214301445
 C         -1.2976821731        3.1578702390       -0.2082683473
 C         -0.0689118021        2.7527914782       -0.7047211797
 H          0.0680999877        2.4391661669       -1.7283072118
 H         -2.1539169625        3.1904996356       -0.8633150634
 H         -2.3739437019        3.8536111001        1.5003994708
 H         -0.4174328562        3.7774774406        3.0004152573
 H          1.7997232005        3.0853989938        2.0890186713
 H          4.3748221791        1.9160040047        0.7638814334
 H          5.5358274899       -0.0889919450        0.6307760446
 H          5.4339880117       -2.5561409635        0.5385257362
 H          3.2668930156       -3.6967926501        0.4091985303
 H          0.5476779499       -2.9025335311        1.4636033184
 C          0.8561521666       -3.8971133920       -0.4052671577
 C          1.1667935716       -5.2204825175        0.2269084292
 C         -0.2241817436       -4.9233265597       -0.2424402203
 H         -0.5966361103       -5.4258254514       -1.1225378891
 H         -0.9825868495       -4.7253701249        0.5009184580
 H          1.7537479652       -5.9333623073       -0.3327915508
 H          1.3402032149       -5.2406510459        1.2924204649
 H          1.2188938185       -3.7122742423       -1.4108599015
