  62
        -98.93484298
 C         -2.5825992507       -0.0757553290        0.5439368242
 C         -2.2649342295        0.4877860643       -0.7150622668
 C         -1.8939371154        1.9167475292       -0.7259410456
 C         -1.8175787795        2.5816937011        0.4385880309
 C         -1.3747344924        4.0003175103        0.6720569755
 C          0.1427233697        4.0592528139        0.9234010433
 C          0.9920437907        4.2582254001       -0.3296937104
 H          0.8090002091        5.2560944538       -0.7353748282
 H          2.0385974494        4.2112190218       -0.0202082149
 C          0.7610853981        3.2207077699       -1.4303203705
 H          1.6340687872        3.2303751559       -2.0865794344
 H          0.7027298612        2.2272112891       -0.9805668868
 C         -0.4930370072        3.5007717202       -2.2707326070
 H         -0.8504457008        4.5085318331       -2.0593631314
 H         -0.2298510654        3.4818030894       -3.3308121657
 C         -1.6362835506        2.4962166756       -2.0911236070
 H         -1.4517190260        1.6243721202       -2.7271938028
 H         -2.5671566828        2.9508799891       -2.4496242423
 H          0.3529322216        4.8797349342        1.6132131703
 H          0.4418115941        3.1289504955        1.4151972271
 H         -1.6617814225        4.6390653618       -0.1580707664
 H         -1.8926249794        4.3401769544        1.5715804024
 O         -2.0978519030        1.9918770622        1.6358046266
 C         -2.4593523229        0.6624479593        1.7212593170
 O         -2.6461031729        0.2554010486        2.8884338824
 O         -2.2816589762       -0.1624284390       -1.7927966107
 C         -2.8710875056       -1.5609963167        0.7008504798
 C         -1.8019551117       -2.3326334935       -0.0361360321
 C         -2.0432035651       -3.3717891431       -0.9222846058
 C         -0.9860187727       -3.9940713484       -1.5670948587
 C          0.3168927446       -3.5797886462       -1.3674044869
 C          0.5670081097       -2.5309147481       -0.4859872902
 C         -0.4851700610       -1.9537712735        0.1995488181
 H         -0.2844750989       -1.1629863531        0.9087231663
 N          1.8681264366       -2.0251851254       -0.3285620858
 S          2.2242576135       -0.7835989671        0.7390486410
 O          2.1385676095       -1.2464935800        2.1099856478
 O          1.4414974106        0.3766868668        0.4017147115
 C          3.9294033109       -0.5049936266        0.3024445039
 C          4.2070432755        0.3341219629       -0.7597051252
 C          5.5276712632        0.5355648387       -1.1279091365
 C          6.5433900920       -0.1038025593       -0.4325998925
 C          6.2499149351       -0.9414272674        0.6328888046
 C          4.9307917670       -1.1467046168        1.0060535140
 H          4.6561810326       -1.7787425744        1.8352773183
 H          7.0418710266       -1.4339000151        1.1737014614
 H          7.5704892926        0.0545421104       -0.7210223769
 H          5.7589745569        1.1889340034       -1.9536004476
 H          3.3833542154        0.8137390066       -1.2631864955
 H          2.6051805370       -2.7091900913       -0.4107986115
 H          1.1335103125       -4.0464663654       -1.8957223724
 H         -1.1846422731       -4.8045157267       -2.2521054857
 H         -3.0549469041       -3.6824177514       -1.1255980081
 H         -2.7365776941       -1.7564949515        1.7790308565
 C         -4.2895465387       -1.9888381229        0.3582679796
 C         -5.4169098846       -1.0006882537        0.3606900567
 C         -4.9558549718       -1.6080460327       -0.9282924835
 H         -5.5955859741       -2.3356123714       -1.4063038961
 H         -4.3927789737       -0.9966456458       -1.6146055538
 H         -6.3678794003       -1.3089927425        0.7689432086
 H         -5.1715301702        0.0336845814        0.5554245982
 H         -4.5196263020       -2.9743924793        0.7519930317
