  62
        -98.94067545
 C          1.4103809005        1.4441676774        0.4210680872
 C          1.8938267607        0.3417210509        1.1725325197
 C          2.9888742143       -0.4247607565        0.5685118779
 C          3.4534656157       -0.0786791850       -0.6452911267
 C          4.5881607747       -0.7374312153       -1.3819702965
 C          4.1776903708       -1.9860373647       -2.1742086165
 C          3.8608709060       -3.2178803085       -1.3256655570
 H          3.8031952741       -4.0688874152       -2.0071015713
 H          4.6870510151       -3.4063591268       -0.6393555001
 C          2.5453949944       -3.1242296266       -0.5397149798
 H          1.9248169507       -2.3279615674       -0.9575055914
 H          1.9877493562       -4.0553991584       -0.6554578532
 C          2.7164535365       -2.8817364276        0.9598346714
 H          1.7232904197       -2.7839403661        1.4036212660
 H          3.2127323615       -3.7406271231        1.4167951941
 C          3.5108128261       -1.6174906419        1.3110711241
 H          4.5698273871       -1.7637969480        1.0987503081
 H          3.3914339574       -1.4231529935        2.3798042852
 H          3.3130440399       -1.7370904252       -2.7937614038
 H          5.0054430425       -2.2337648680       -2.8428399858
 H          5.3806922417       -0.9949844880       -0.6786389517
 H          4.9743230950        0.0045207249       -2.0843400187
 O          2.9341047964        0.9558857036       -1.3552743150
 C          1.8878292373        1.7273967889       -0.8602175087
 O          1.5024802549        2.6062927047       -1.6518230805
 O          1.4341767252        0.0164289103        2.2993488812
 C          0.2797950844        2.2579285268        1.0260506395
 C         -0.8580250254        2.3666398851        0.0445077346
 C         -1.1785725924        3.5401624765       -0.6250250509
 C         -2.2148545805        3.5595730923       -1.5410150894
 C         -2.9641887462        2.4235267133       -1.7869342950
 C         -2.6559872370        1.2455129730       -1.1168858428
 C         -1.6024786126        1.2230156235       -0.2176705796
 H         -1.3569417616        0.3015606509        0.2921879195
 N         -3.3961079432        0.0701581501       -1.3333949096
 S         -3.9149256281       -0.7963388759        0.0058180913
 O         -5.0973033009       -1.4974993084       -0.4495928095
 O         -4.0885877322        0.0634686310        1.1530079464
 C         -2.6385468131       -1.9968012432        0.3139277910
 C         -2.0773338251       -2.0897794850        1.5716228702
 C         -1.1389560684       -3.0797194843        1.8160759740
 C         -0.7813566947       -3.9554527865        0.8027839507
 C         -1.3461922755       -3.8420111778       -0.4587721221
 C         -2.2869027548       -2.8562321707       -0.7082544010
 H         -2.7576803670       -2.7438860346       -1.6707778541
 H         -1.0595369179       -4.5214109018       -1.2453263524
 H         -0.0582874038       -4.7312820938        0.9999024867
 H         -0.6914315809       -3.1590091237        2.7941706192
 H         -2.3809165697       -1.3875213472        2.3320964168
 H         -4.1399130447        0.1667254713       -2.0101726220
 H         -3.7793254568        2.4434869457       -2.4948893511
 H         -2.4470111585        4.4738362034       -2.0661430305
 H         -0.5976086150        4.4301761419       -0.4478393738
 H         -0.0694396449        1.6459337227        1.8746299523
 C          0.6997316972        3.5977987932        1.6107337488
 C          2.0375095347        3.7576143402        2.2678418635
 C          1.7400670425        4.4782682584        0.9888851392
 H          1.5897004656        5.5474245426        1.0287295479
 H          2.2126610322        4.1392360264        0.0810379148
 H          2.0987131225        4.3290684765        3.1817675265
 H          2.7116289433        2.9139993476        2.2325027236
 H         -0.1350854711        4.1008682523        2.0902810443
