  62
        -98.93507297
 C         -1.1372290905       -1.3401501593        0.2135052998
 C         -2.0030933901       -0.7575563391        1.1727601600
 C         -2.8102590795        0.3821024315        0.7173426904
 C         -2.6455791094        0.8524359617       -0.5313922095
 C         -3.3570711788        2.0248660822       -1.1538184392
 C         -4.8790504989        1.8740852831       -1.3433073991
 C         -5.7197065885        2.4498068033       -0.1969015789
 H         -5.1360810080        3.2131728628        0.3190184113
 H         -6.5909748783        2.9545313439       -0.6193094086
 C         -6.2440840689        1.4331456733        0.8217094509
 H         -7.1030949193        0.9103383339        0.3946631109
 H         -6.5980831186        1.9860669633        1.6945646711
 C         -5.2443505895        0.3712956627        1.2806702806
 H         -5.6730096697       -0.1527598973        2.1374164205
 H         -5.1180752000       -0.3772021172        0.4944481204
 C         -3.8524617591        0.9166622618        1.6558244906
 H         -3.8520381486        2.0055178718        1.6516962509
 H         -3.5769357892        0.5757909514        2.6559504805
 H         -5.1386199887        2.4107891335       -2.2572384889
 H         -5.1241864495        0.8248313633       -1.5059685893
 H         -2.8926040188        2.1603311822       -2.1325178192
 H         -3.1556735583        2.9165667020       -0.5560320390
 O         -1.7437660698        0.3169075614       -1.3952917898
 C         -0.9745210003       -0.7902176991       -1.0597378301
 O         -0.2081150406       -1.1586902593       -1.9663420003
 O         -2.0925556302       -1.1671334893        2.3616563399
 C         -0.3192349111       -2.5444858099        0.6461383694
 C          1.1297445890       -2.3281465905        0.2959061393
 C          1.7970429985       -3.0430670607       -0.6891612709
 C          3.1173787086       -2.7561964913       -0.9902452210
 C          3.8020858192       -1.7646582018       -0.3113813408
 C          3.1441108197       -1.0474149517        0.6793106195
 C          1.8195249896       -1.3297755311        0.9736655395
 H          1.3041029099       -0.7606719910        1.7381561297
 N          3.8386860103       -0.0356216523        1.3810338697
 S          4.2798455310        1.3183256677        0.5010932400
 O          5.1619395106        0.9165760775       -0.5632761002
 O          4.8196097316        2.2475785272        1.4675108801
 C          2.7542641713        1.9577422487       -0.1646146797
 C          2.2458803509        1.4138604693       -1.3268603998
 C          1.0380287711        1.8871474500       -1.8136267096
 C          0.3607574817        2.8833351902       -1.1280036993
 C          0.8792958521        3.4120652897        0.0441821508
 C          2.0870849718        2.9440089189        0.5346843306
 H          2.5321206121        3.3333935784        1.4364809506
 H          0.3465472125        4.1846434398        0.5752710210
 H         -0.5793421682        3.2472097508       -1.5112373091
 H          0.6223411307        1.4578252005       -2.7110252197
 H          2.7930883304        0.6359481991       -1.8341191901
 H          3.3568521405        0.2646980878        2.2174202998
 H          4.8253412193       -1.5197370623       -0.5454115508
 H          3.6205696882       -3.3121032114       -1.7668712811
 H          1.2729005380       -3.8056046002       -1.2413215011
 H         -0.4048939010       -2.5491985501        1.7455360994
 C         -0.8624660319       -3.8823945094        0.1683249991
 C         -2.3394136820       -4.1017918786        0.0378517892
 C         -1.4743714721       -4.0785868988       -1.1847857009
 H         -1.2895550327       -5.0117687687       -1.6967928111
 H         -1.5293551217       -3.2254949986       -1.8421098707
 H         -2.7514427125       -5.0453618985        0.3626290390
 H         -2.9859717115       -3.2561851883        0.2231252295
 H         -0.2864663923       -4.7129832898        0.5651876289
