  62
        -98.94184084
 C          0.8416045095        1.3319997488        0.4723387327
 C          1.2693061073        0.6955685272       -0.7146396922
 C          2.2167574910       -0.4221048250       -0.5500175418
 C          2.5191654834       -0.8420388445        0.6904326700
 C          3.4898807624       -1.9215094380        1.0860722476
 C          4.8730076818       -1.3211951654        1.3914175464
 C          5.7897016919       -1.1711246246        0.1777406434
 H          6.6741034486       -0.6199849895        0.5056096303
 H          6.1218269704       -2.1600259234       -0.1450921901
 C          5.1735420354       -0.4452635543       -1.0211052984
 H          4.6147287439        0.4259797185       -0.6744196278
 H          5.9905891483       -0.0771550300       -1.6446413629
 C          4.2643833186       -1.3457407941       -1.8711255367
 H          4.4081169499       -2.3829616650       -1.5700082296
 H          4.5703722712       -1.2822075103       -2.9172718337
 C          2.7706698791       -0.9937081463       -1.8260641988
 H          2.5519860842       -0.2353871653       -2.5842878019
 H          2.1847534061       -1.8764245820       -2.0967721562
 H          4.7191868815       -0.3462298886        1.8613053972
 H          5.3784844438       -1.9575239408        2.1208351403
 H          3.0988128622       -2.3724778358        2.0009567283
 H          3.5602704800       -2.6847790659        0.3168050483
 O          1.9881328901       -0.2713239159        1.8092353448
 C          1.1824926891        0.8494507693        1.7346636538
 O          0.8350275019        1.3126701549        2.8409687164
 O          0.9027560367        1.0560734850       -1.8631542449
 C         -0.0287801751        2.5729529055        0.3961279452
 C         -1.3325531934        2.2543832237       -0.2932504961
 C         -1.8303178390        2.9764066801       -1.3695918389
 C         -3.0436386012        2.6321128094       -1.9398472327
 C         -3.7846035548        1.5747258423       -1.4469101769
 C         -3.3007148993        0.8538542806       -0.3596665512
 C         -2.0808909258        1.1928649086        0.2024710714
 H         -1.7129438798        0.6359291786        1.0525175166
 N         -4.0545690257       -0.1934858529        0.1860124035
 S         -3.3626033031       -1.4720168160        0.9893981314
 O         -4.4232219304       -2.4565478868        1.0501849396
 O         -2.8281555437       -1.0500291433        2.2597665439
 C         -2.0655247333       -2.1089801667       -0.0554438491
 C         -2.3542685634       -2.3780273992       -1.3789057898
 C         -1.3872001658       -2.9763463352       -2.1689411060
 C         -0.1591114509       -3.3110885387       -1.6202214766
 C          0.1189872569       -3.0286738190       -0.2924117548
 C         -0.8399043842       -2.4149784463        0.4974967124
 H         -0.6588653956       -2.1704333172        1.5332412714
 H          1.0743676125       -3.2851066091        0.1355568359
 H          0.5832073148       -3.8018248301       -2.2302318171
 H         -1.5959434596       -3.1886807588       -3.2050269747
 H         -3.3266236270       -2.1303388398       -1.7718526262
 H         -4.8809627071       -0.4560195972       -0.3291482796
 H         -4.7332089101        1.3112381792       -1.8885761230
 H         -3.4171231723        3.1960818289       -2.7808605469
 H         -1.2679679090        3.8052921370       -1.7657440312
 H         -0.2601979054        2.8433029496        1.4372932067
 C          0.7410161066        3.7097419940       -0.2439225288
 C          0.4015888130        5.1303318801        0.0895464617
 C          1.6701799168        4.5218305739        0.6053288548
 H          2.6089659240        4.8447008108        0.1807988355
 H          1.7300155630        4.2705620659        1.6547740320
 H          0.4723903460        5.8751241694       -0.6886337930
 H         -0.4000880804        5.3004433364        0.7923009241
 H          1.0603622425        3.4812351646       -1.2540373103
