  62
        -98.94227375
 C          2.0198240888        0.1421290304        0.4048019400
 C          3.1727760588        0.6893867102        1.0175295402
 C          4.4535754388        0.0784569603        0.6393064300
 C          4.4588314888       -0.9577308694       -0.2191325403
 C          5.6939732889       -1.6373268992       -0.7339897305
 C          6.1791082889       -0.9895645588       -2.0384810903
 C          6.2819384388        0.5342391011       -1.9702486098
 H          6.6634205489        0.8775137514       -2.9343795597
 H          5.2799608788        0.9538358111       -1.8540109097
 C          7.1853147588        1.0599973608       -0.8459203696
 H          7.8417127088        0.2628584607       -0.4951907298
 H          7.8219132388        1.8500976210       -1.2496464494
 C          6.4338571088        1.6585115705        0.3446706305
 H          5.7069156488        2.3921152106       -0.0128652293
 H          7.1560332987        2.1908147203        0.9693658907
 C          5.7023305488        0.6549926902        1.2451758502
 H          6.3886933088       -0.1394954399        1.5446596200
 H          5.3800815887        1.1887394199        2.1440045804
 H          7.1534589689       -1.4112651887       -2.2919721104
 H          5.4781486089       -1.2500248986       -2.8350800603
 H          6.4744767688       -1.5848899094        0.0225007496
 H          5.4552477689       -2.6847885592       -0.9258115108
 O          3.3279017089       -1.4793938793       -0.7599272105
 C          2.0817103788       -0.9370948394       -0.4763738803
 O          1.1347186489       -1.5008179892       -1.0570983805
 O          3.1312063687        1.6407595300        1.8431582304
 C          0.6673950788        0.7562632102        0.7178887301
 C         -0.2831565612       -0.2985691199        1.2243552098
 C          0.0749403488       -1.0412710002        2.3464674696
 C         -0.7619917612       -2.0258671004        2.8339749293
 C         -1.9766114812       -2.2815357402        2.2223920292
 C         -2.3507417912       -1.5371517299        1.1086112194
 C         -1.5053562512       -0.5486938698        0.6205159997
 H         -1.7894424112       -0.0141453995       -0.2690456001
 N         -3.5973321512       -1.7622806498        0.5185657893
 S         -4.2135424711       -1.1700456994       -0.9062708605
 O         -5.2096611611       -2.1412005293       -1.3040966108
 O         -3.1862198911       -0.8754610291       -1.8758818704
 C         -5.0495331012        0.3443008105       -0.4554065601
 C         -4.4765861612        1.2269066902        0.4391853602
 C         -5.1431051713        2.4061890701        0.7360210705
 C         -6.3620527012        2.6863392603        0.1384666705
 C         -6.9260529112        1.7898295405       -0.7557421697
 C         -6.2654061612        0.6093170606       -1.0561419301
 H         -6.6707654712       -0.1187793292       -1.7398278503
 H         -7.8751348412        2.0055173407       -1.2195343397
 H         -6.8740022513        3.6064739502        0.3719803108
 H         -4.7043446413        3.1019764799        1.4332290407
 H         -3.5274502512        0.9934073501        0.8932903401
 H         -4.1108370612       -2.5610061999        0.8538144191
 H         -2.6285586512       -3.0543544004        2.5996245089
 H         -0.4679225512       -2.6022399106        3.6983608591
 H          1.0262777888       -0.8435435604        2.8216486697
 H          0.8561888187        1.4698044800        1.5340395503
 C          0.1424587588        1.5206054306       -0.4795145097
 C         -0.8257797512        2.6475372405       -0.2795491393
 C          0.5855139088        2.9353355607       -0.6936644492
 H          0.7711827088        3.2693051010       -1.7035702391
 H          1.2586149887        3.3588658005        0.0374706209
 H         -1.6145131112        2.7831629407       -1.0044857193
 H         -1.1104235813        2.8838015402        0.7345471907
 H          0.0240424788        0.8953622608       -1.3587295698
