  62
        -98.94384872
 C         -1.2969016395       -1.4242966607        0.6164108216
 C         -2.0889502597       -1.0177585616       -0.4862270086
 C         -3.1112001301        0.0008764681       -0.2014575291
 C         -3.2273560003        0.4978803086        1.0421986507
 C         -4.1904327408        1.5725824684        1.4534562202
 C         -3.5530843215        2.9644931486        1.3445505595
 C         -2.8608565916        3.2327184983        0.0074307394
 H         -1.9733795113        2.5993692987       -0.0765049703
 H         -2.5005948921        4.2641268485        0.0328184089
 C         -3.7551032715        3.0364948973       -1.2248502205
 H         -3.5836148319        3.8679822671       -1.9119053709
 H         -4.8048038415        3.0704482470       -0.9293897005
 C         -3.4885921709        1.7507793171       -2.0101851899
 H         -2.4164755709        1.6614895674       -2.2066220299
 H         -3.9938526910        1.8323756964       -2.9765281100
 C         -3.9682684103        0.4519955671       -1.3497667693
 H         -3.9100885800       -0.3426302932       -2.0994352389
 H         -5.0098298004        0.5582052968       -1.0395470793
 H         -2.8075845815        3.0693969893        2.1364649895
 H         -4.3313891618        3.7126463783        1.5084756592
 H         -5.0776494708        1.5179157977        0.8255789602
 H         -4.4789910707        1.3969739387        2.4915040103
 O         -2.4367142402        0.1003909795        2.0713827308
 C         -1.4300499897       -0.8308737702        1.8734221413
 O         -0.7261686696       -1.0432823494        2.8822670714
 H          0.6023145398        0.0633313698       -0.1039129892
 C          1.0225652702       -0.6264146103       -0.8189355488
 C          0.7094266908       -1.9755788104       -0.7225269182
 C          1.2222916412       -2.8416076206       -1.6786804778
 C          2.0178667609       -2.3550195608       -2.7027487080
 C          2.3309377903       -1.0107158307       -2.7899169087
 C          1.8178727499       -0.1352818305       -1.8388544491
 N          2.0855408993        1.2400332096       -1.8880518597
 S          2.1398875189        2.1370966103       -0.4819681001
 O          0.8135516388        2.3393673200        0.0453372398
 O          2.8580931384        3.3369470205       -0.8563507507
 C          3.1359859093        1.1716349613        0.6408074903
 C          4.4682364094        0.9998108818        0.3160150804
 C          5.2674244798        0.2239415125        1.1386113807
 C          4.7225022901       -0.3710864672        2.2667901510
 C          3.3863506800       -0.1844155177        2.5834478409
 C          2.5829711596        0.5951145016        1.7654464906
 H          1.5389218996        0.7502032712        1.9915868605
 H          2.9531449702       -0.6442709874        3.4576798612
 H          5.3413695803       -0.9813058166        2.9054265913
 H          6.3084810398        0.0819031229        0.8975751408
 H          4.8575130092        1.4871126415       -0.5629953799
 H          2.7727519292        1.5299573296       -2.5668500899
 H          2.9488876501       -0.6374205908       -3.5918263989
 H          2.4031138412       -3.0365470809       -3.4459433477
 H          0.9842979016       -3.8917323007       -1.6381755573
 C         -0.1440504990       -2.3998278503        0.4494378820
 H          0.4673994509       -2.2629082496        1.3579975819
 C         -0.5416782584       -3.8683226205        0.4191228927
 C         -1.8657802781       -4.3272264208        0.9513757029
 C         -1.5835985081       -4.3981747514       -0.5178687070
 H         -1.4265163077       -5.3706478715       -0.9614291166
 H         -2.0685719985       -3.6896858419       -1.1698294974
 H         -2.5533580385       -3.5713484710        1.3033661026
 H         -1.8995263477       -5.2460427606        1.5178167134
 H          0.3021259919       -4.5198895500        0.6240952530
 O         -1.9579057095       -1.4700651321       -1.6527089084
