  62
        -98.93969906
 C         -1.7816771998       -0.5196562418        0.8498617010
 C         -2.7947755862       -1.2163000035        0.1446836527
 C         -4.1671158299       -0.7170518631        0.3361171928
 C         -4.3868872616        0.3381928750        1.1394331717
 C         -5.7232899456        0.9811341752        1.3696202120
 C         -5.9735588466        2.1176921598        0.3685862382
 C         -5.7050024184        1.7302572923       -1.0856690807
 H         -5.9453084069        2.5988410983       -1.7027127763
 H         -4.6375067752        1.5339102495       -1.2103578531
 C         -6.5052205540        0.5159851630       -1.5773772978
 H         -7.3521425820        0.3374177673       -0.9138516772
 H         -6.9103297123        0.7413085592       -2.5661914343
 C         -5.6873807519       -0.7696235013       -1.7130958659
 H         -4.7878148628       -0.5702143299       -2.3005509051
 H         -6.2867659899       -1.4961822224       -2.2680409504
 C         -5.2658930347       -1.4348074461       -0.3968159215
 H         -6.1383983320       -1.5629660097        0.2468713749
 H         -4.8674685403       -2.4244505107       -0.6385766088
 H         -7.0083323211        2.4488398285        0.4741856561
 H         -5.3208311428        2.9553164063        0.6257567820
 H         -6.5033590913        0.2273692668        1.2817614658
 H         -5.7380828052        1.3902554107        2.3813042485
 O         -3.3911850037        0.9770332101        1.8064916192
 C         -2.0746519812        0.5710868060        1.6732513593
 O         -1.2637336368        1.2459923962        2.3404102395
 H          1.8124625143        0.7918228398        0.7859925542
 C          1.4333641196        0.6220823655       -0.2106165615
 C          0.3376452281       -0.2061861023       -0.4052984182
 C         -0.1603011626       -0.3705964908       -1.6954068264
 C          0.4279265429        0.2839229696       -2.7610528979
 C          1.5250026591        1.1049610488       -2.5654683646
 C          2.0264304310        1.2802085526       -1.2810279991
 N          3.1247295277        2.1189664936       -1.0590419302
 S          4.2025808690        1.8426449830        0.1789345761
 O          3.6385858788        2.2372081180        1.4451805497
 O          5.3965809116        2.5530112125       -0.2278050763
 C          4.5231863494        0.0868120384        0.1748751148
 C          4.8032736665       -0.5418896074       -1.0225916253
 C          5.0788305866       -1.8996658898       -1.0186939922
 C          5.0799689037       -2.6021440267        0.1764876633
 C          4.8039549299       -1.9559233399        1.3713362571
 C          4.5196268630       -0.5989848511        1.3723211151
 H          4.2858479900       -0.0605122048        2.2772549994
 H          4.8020046522       -2.5024540811        2.3008341618
 H          5.2929937276       -3.6591490660        0.1774271650
 H          5.2908436241       -2.4055977401       -1.9466072604
 H          4.8051604871        0.0288716251       -1.9366445286
 H          3.5654857113        2.4924115054       -1.8857692656
 H          1.9825044999        1.6183917893       -3.3973371191
 H          0.0315486899        0.1510302908       -3.7563461700
 H         -1.0121370186       -1.0154675669       -1.8476159411
 C         -0.3093393648       -0.8937619955        0.7693880432
 H          0.1417812690       -0.4751940640        1.6831165637
 C         -0.0767833005       -2.3994369032        0.7938036383
 C          0.5633890612       -3.1607306578       -0.3249183401
 C          1.3195379866       -2.9262124421        0.9453063256
 H          1.4902545892       -3.7570773407        1.6126009336
 H          2.1221557451       -2.2039024437        0.9225000801
 H          0.1852375726       -4.1502438114       -0.5310024573
 H          0.8692524701       -2.6188847443       -1.2053797990
 H         -0.8536220440       -2.9202713020        1.3433205741
 O         -2.5886041832       -2.2022847623       -0.6071181895
