  62
        -98.94666460
 C         -1.4620509334       -1.4619009414       -0.4307566018
 C         -2.7250101605       -1.3913471078        0.2093095833
 C         -3.5341313746       -0.2068408837       -0.0949280859
 C         -3.0569653814        0.7275740152       -0.9374566711
 C         -3.7723350929        1.9819421233       -1.3622183355
 C         -3.6377451296        3.1518647085       -0.3776381927
 C         -4.4241356543        3.0030128503        0.9250816811
 H         -4.4106128353        3.9758627045        1.4207103371
 H         -5.4646873071        2.7696268273        0.6975312997
 C         -3.8572072365        1.9502543694        1.8880052795
 H         -2.8332034254        1.7021960599        1.5987205165
 H         -3.8133798086        2.3645636509        2.8977905381
 C         -4.6720359794        0.6591877364        1.9618517735
 H         -4.1648684256       -0.0289114773        2.6430305768
 H         -5.6610627314        0.8717376892        2.3739141055
 C         -4.8461190045       -0.0511395693        0.6130903361
 H         -5.5540788782        0.4941301754       -0.0107546598
 H         -5.2437018816       -1.0515093770        0.8012148290
 H         -2.5811869340        3.2962511719       -0.1441554916
 H         -3.9922930514        4.0497383083       -0.8891605671
 H         -4.8285039789        1.7624868115       -1.5220771122
 H         -3.3337635497        2.2811611189       -2.3165350927
 O         -1.8446042274        0.6181643605       -1.5396874302
 C         -1.0094545630       -0.4617876087       -1.2929738833
 O          0.0737721958       -0.4118981540       -1.9045695782
 O         -3.1562393643       -2.2786706983        0.9926447686
 C         -0.5633849423       -2.6447570764       -0.1064607932
 C          0.5957356138       -2.1094073172        0.6949984320
 C          0.4371627281       -1.8890872357        2.0604668416
 C          1.4428916593       -1.2998371245        2.8038149305
 C          2.6216628119       -0.8998216950        2.1975507957
 C          2.7826950455       -1.1050823364        0.8341460321
 C          1.7856283932       -1.7264925172        0.0951274771
 H          1.9247410717       -1.8712396447       -0.9641248506
 N          3.9631201979       -0.6598301963        0.1985857063
 S          4.2370908459        0.9930220750        0.2380905409
 O          5.2896249551        1.2304571074       -0.7238242213
 O          4.5208362237        1.3828707436        1.5967792178
 C          2.7215235340        1.7572267501       -0.3086085567
 C          2.5699050290        2.0441860387       -1.6496412746
 C          1.3824588693        2.6065977520       -2.0853104304
 C          0.3667234312        2.8608945968       -1.1784171036
 C          0.5305096400        2.5571441724        0.1634210728
 C          1.7184248816        2.0002762171        0.6073986523
 H          1.8811129202        1.7567597066        1.6448613299
 H         -0.2651747295        2.7447608517        0.8685272850
 H         -0.5613213179        3.2884661445       -1.5243976771
 H          1.2461386604        2.8338034142       -3.1303207624
 H          3.3845246037        1.8315078486       -2.3234879362
 H          4.0266696725       -0.9733027425       -0.7605221251
 H          3.4059428636       -0.4115518499        2.7530650903
 H          1.3071463685       -1.1420389901        3.8632067925
 H         -0.4947264531       -2.1728989088        2.5294178706
 H         -1.1617471517       -3.2977591767        0.5424968368
 C         -0.1575175133       -3.4217635926       -1.3402872321
 C          0.4535233843       -4.7809558501       -1.1803586229
 C         -0.9353643935       -4.6427691473       -1.7255629086
 H         -1.1003168514       -4.8380689497       -2.7745991053
 H         -1.7636781237       -4.9283540370       -1.0939118077
 H          1.2440320014       -5.0751256635       -1.8538131236
 H          0.5689615922       -5.1594388093       -0.1759644624
 H          0.2038795367       -2.7948769827       -2.1460936133
