  62
        -98.94951912
 C          1.5473853818        0.9437590324       -0.7045983566
 C          1.3454846949        1.7304583696        0.4546130778
 C          0.2623364320        2.7219580970        0.3752922511
 C         -0.4823758749        2.7983937102       -0.7420252555
 C         -1.6112556965        3.7643726036       -0.9606840856
 C         -2.9673193683        3.1827952050       -0.5405469078
 C         -2.9763051897        2.5620132737        0.8565508485
 H         -2.3560939184        1.6626130789        0.8703354556
 H         -4.0000822204        2.2394361489        1.0628972975
 C         -2.5013466089        3.4987585999        1.9753540230
 H         -3.1774248136        3.3929557882        2.8264849828
 H         -2.5543828346        4.5370991332        1.6441927960
 C         -1.0915236605        3.1940672158        2.4863086126
 H         -1.0020150408        2.1207737672        2.6768551222
 H         -0.9534842060        3.7120664304        3.4396177111
 C          0.0583503420        3.6183183381        1.5634397718
 H          0.9858387602        3.5618739358        2.1411333658
 H         -0.0868233066        4.6540767728        1.2467604357
 H         -3.2574892589        2.4131485599       -1.2598876821
 H         -3.7097564769        3.9823575417       -0.5855766862
 H         -1.4089888802        4.6741993931       -0.3982949342
 H         -1.6472779965        4.0078807220       -2.0243549038
 O         -0.2945613961        1.9857359809       -1.8141792268
 C          0.7165601983        1.0369504208       -1.8197596675
 O          0.7727935101        0.3514718655       -2.8606832061
 H          0.3417801724       -1.2819226834       -0.2419916106
 C          1.0933476095       -1.6212549380        0.4558196293
 C          2.3854574009       -1.1230958172        0.3497542662
 C          3.3488758335       -1.5831129051        1.2371098192
 C          3.0085097197       -2.4926857865        2.2242615198
 C          1.7088880463       -2.9459336906        2.3576333153
 C          0.7406667174       -2.5009062829        1.4642664702
 N         -0.5909730440       -2.9343550852        1.5485974878
 S         -1.8181969154       -1.8604250283        1.1650775192
 O         -1.4801524205       -0.5034787128        1.5226920268
 O         -2.9899371940       -2.4121565683        1.8147963847
 C         -2.0138120044       -2.0224931766       -0.5961509316
 C         -2.1773265685       -0.8901473182       -1.3675742805
 C         -2.3435424014       -1.0248806692       -2.7361356356
 C         -2.3486050124       -2.2879823829       -3.3061639012
 C         -2.1922014312       -3.4177531310       -2.5171323893
 C         -2.0242909788       -3.2881415026       -1.1480937270
 H         -1.8955297282       -4.1417082698       -0.5037348192
 H         -2.1956127345       -4.3978294147       -2.9664983905
 H         -2.4707824702       -2.3890546156       -4.3730000002
 H         -2.4489555752       -0.1434321672       -3.3481745719
 H         -2.1494965071        0.0764245893       -0.8891277106
 H         -0.8119724776       -3.4923986816        2.3604045979
 H          1.4413106106       -3.6326957425        3.1461893984
 H          3.7640459795       -2.8395579952        2.9129414153
 H          4.3613889308       -1.2211005151        1.1659883982
 C          2.6472242549       -0.1041008590       -0.7324972655
 H          2.5595848330       -0.6098148845       -1.7055436865
 C          4.0103765574        0.5477443544       -0.6399640526
 C          5.2041348646       -0.1106302049       -1.2619758301
 C          4.6216129169        1.1234082977       -1.8808168351
 H          5.1697145938        2.0502955212       -1.8031316934
 H          4.0633704506        1.0223850273       -2.8003286608
 H          5.0489275952       -1.0512787176       -1.7682173755
 H          6.1572680119       -0.0295400835       -0.7615749989
 H          4.1481406321        1.0945927276        0.2855793485
 O          2.0492413123        1.6309218985        1.4939701583
