  62
        -98.94503669
 C         -2.2038965392       -0.8247168100       -0.0681577600
 C         -3.0869771692       -0.5521701296        1.0094980699
 C         -3.8801318291        0.6786086005        0.9085409395
 C         -3.7063311190        1.4844146302       -0.1546104607
 C         -4.4773566988        2.7459874702       -0.4111219711
 C         -5.7350216689        2.4683383601       -1.2466832710
 C         -6.5833736190        1.3109367003       -0.7196575107
 H         -7.4581888690        1.2279467602       -1.3681040007
 H         -6.0189060591        0.3811784802       -0.8206455804
 C         -7.0395474890        1.4704290408        0.7373364093
 H         -6.9478978889        2.5135273709        1.0420049689
 H         -8.0965609690        1.2047051509        0.8042129793
 C         -6.2932517091        0.5835738510        1.7357240295
 H         -6.8333413691        0.6122598513        2.6857162895
 H         -6.3029670892       -0.4512530391        1.3846628898
 C         -4.8401160790        0.9806860309        2.0248740294
 H         -4.7939228289        2.0375579210        2.2954800291
 H         -4.4979813791        0.3916632811        2.8807293896
 H         -6.3361611288        3.3788630801       -1.2775077413
 H         -5.4262117189        2.2302278597       -2.2672511210
 H         -4.7522415688        3.1967678605        0.5405776588
 H         -3.8328372088        3.4371798499       -0.9571080713
 O         -2.8296037690        1.2092632498       -1.1521367106
 C         -2.0611645691        0.0538405397       -1.1421229903
 O         -1.3191086891       -0.0565761807       -2.1388498203
 O         -3.2079358593       -1.3097332493        2.0084575701
 C         -1.3705358093       -2.0942015000        0.0226558903
 C          0.0399781907       -1.7173287201        0.4053528202
 C          0.4276507907       -1.7370361497        1.7413166802
 C          1.6959084007       -1.3302166297        2.1139500901
 C          2.5991527208       -0.8845832401        1.1649971800
 C          2.2148861808       -0.8442446905       -0.1683124800
 C          0.9511534807       -1.2766321904       -0.5433635299
 H          0.6566082308       -1.2201793307       -1.5799022799
 N          3.1179713508       -0.3613307908       -1.1362878802
 S          3.7308782410        1.1845177692       -0.8780079506
 O          2.8319671411        1.9874594895       -0.0803197608
 O          4.0598079011        1.6929730988       -2.1920193007
 C          5.2424186610        0.8883852693        0.0176199195
 C          5.4207805210        1.4380368796        1.2720392993
 C          6.6057582310        1.1931873397        1.9487085194
 C          7.5865065809        0.4086514594        1.3613698697
 C          7.3933322009       -0.1331926009        0.0992268798
 C          6.2112217909        0.1077696090       -0.5824140803
 H          6.0220706109       -0.2893975613       -1.5656447402
 H          8.1586366808       -0.7419621011       -0.3545891200
 H          8.5070513409        0.2190542995        1.8904266297
 H          6.7575328810        1.6141815800        2.9296813293
 H          4.6279037811        2.0380734398        1.6899092292
 H          2.7507581108       -0.4259259811       -2.0759512001
 H          3.5859812908       -0.5566711101        1.4481947599
 H          1.9834718107       -1.3555810795        3.1539817901
 H         -0.2852825194       -2.0569695294        2.4878150403
 H         -1.8042036094       -2.6618351697        0.8566721005
 C         -1.4410786094       -2.9447654204       -1.2286656994
 C         -0.9702392696       -4.3661220904       -1.1655718490
 C         -2.4323830695       -4.0660691803       -1.2968559391
 H         -2.9189500896       -4.2653190205       -2.2399525990
 H         -3.0659797196       -4.2267746800       -0.4368959791
 H         -0.4499148696       -4.7750407907       -2.0179487289
 H         -0.6107294496       -4.7282890302       -0.2143723189
 H         -1.2602634894       -2.3921520307       -2.1416304696
