  62
        -98.94440637
 C         -1.9434365318       -1.3506945377        0.0702701276
 C         -2.2203318992       -0.3915709412       -0.9338525593
 C         -3.5935214829        0.1357305825       -0.9602998672
 C         -4.4957658645       -0.3071597743       -0.0669979817
 C         -5.9075795210        0.1874125365        0.0497105428
 C         -6.0075707529        1.3576946342        1.0381286074
 C         -4.9722924477        2.4573831743        0.8013086399
 H         -5.1590228225        3.2433294584        1.5364063374
 H         -3.9752179212        2.0594939183        1.0049411757
 C         -4.9983497806        3.0612750345       -0.6097991713
 H         -5.9484783655        2.8318003420       -1.0935737785
 H         -4.9314366139        4.1481436245       -0.5264164854
 C         -3.8484818154        2.6129047396       -1.5138090437
 H         -2.8977845329        2.7557522266       -0.9932087284
 H         -3.8383119621        3.2594113304       -2.3955597652
 C         -3.9162057810        1.1627112553       -2.0094379991
 H         -4.8967024543        0.9700863225       -2.4491879048
 H         -3.1600891567        1.0432896695       -2.7907888833
 H         -7.0116216863        1.7806345809        0.9716937023
 H         -5.8683932360        0.9698269550        2.0498923768
 H         -6.2619478998        0.4960493740       -0.9318604297
 H         -6.5303252050       -0.6335729427        0.4090885357
 O         -4.2009933778       -1.2383273583        0.8741752744
 C         -2.9287202231       -1.7715353316        0.9713660083
 O         -2.7978830246       -2.6107175461        1.8844375854
 H          0.3846956488        0.3785136447       -0.5856816254
 C          0.7921095384        0.0992846762        0.3746443722
 C          0.3839032533       -1.0881016567        0.9656477950
 C          0.9092164987       -1.4265145641        2.2069272091
 C          1.8187784884       -0.5960551329        2.8392794694
 C          2.2232911481        0.5865551935        2.2465758479
 C          1.6979294679        0.9353011465        1.0093112425
 N          2.1195796735        2.1300328262        0.3866249639
 S          3.7664475336        2.2139906726        0.0784174005
 O          4.4597621321        2.5504901986        1.2965492986
 O          3.9157427100        3.1479051143       -1.0149044234
 C          4.1981444987        0.5606387006       -0.4326564999
 C          3.7616859132        0.1287300458       -1.6692846854
 C          4.0157642002       -1.1783068245       -2.0503421195
 C          4.6905161893       -2.0291928156       -1.1883639136
 C          5.1217750794       -1.5801693961        0.0498801635
 C          4.8721256922       -0.2730802015        0.4359496013
 H          5.1889795560        0.1167378310        1.3892108885
 H          5.6461672575       -2.2448192223        0.7171952424
 H          4.8818277269       -3.0486960887       -1.4843308982
 H          3.6815432654       -1.5280450353       -3.0141526242
 H          3.2413179820        0.8183578293       -2.3150015915
 H          1.6029409738        2.3276195529       -0.4592863007
 H          2.9368596708        1.2431575450        2.7178494823
 H          2.2174577289       -0.8727255179        3.8033153488
 H          0.5913668013       -2.3439217313        2.6806281765
 C         -0.5820411070       -2.0051607661        0.2544361843
 H         -0.7601417811       -2.8716648371        0.9045853134
 C          0.0214404397       -2.4994985563       -1.0473267087
 C          1.0869823201       -3.5507561049       -0.9974025141
 C         -0.2785268270       -3.8906696475       -1.5135475651
 H         -0.4055632403       -4.0625836353       -2.5718647253
 H         -0.9235866879       -4.4971316406       -0.8941494806
 H          1.3703043353       -3.9287675967       -0.0270086433
 H          1.9025416190       -3.4885108274       -1.7004872846
 H          0.1061081229       -1.7298873048       -1.8025368865
 O         -1.3825933358        0.0236167190       -1.7803605299
