  62
        -98.93386777
 C         -1.9488548358       -0.9888695679        0.1961616509
 C         -2.3533504742        0.0071398133        1.1160152290
 C         -2.6535626864        1.3416711299        0.5715076940
 C         -2.4849840663        1.5670900850       -0.7444842873
 C         -2.6399523913        2.8284506182       -1.5687137602
 C         -3.3658439335        4.0470215643       -1.0045898920
 C         -4.8651081852        3.8517026995       -0.7812601205
 H         -5.3529908311        3.7690397168       -1.7555679411
 H         -5.2555970302        4.7438652272       -0.2871629755
 C         -5.2542112919        2.6213147614        0.0342179343
 H         -4.9531275697        1.7178571659       -0.5000454440
 H         -6.3445675369        2.6020302520        0.1115844875
 C         -4.6878274981        2.5703595185        1.4519116173
 H         -5.1696239774        1.7363845997        1.9694057780
 H         -4.9453040372        3.4877801861        1.9844980013
 C         -3.1669595273        2.3572422893        1.5513886737
 H         -2.9434107412        1.9608363652        2.5464923352
 H         -2.6255925725        3.2951785946        1.4486404405
 H         -3.2425721627        4.8485076138       -1.7380706159
 H         -2.8832331290        4.3806955170       -0.0906028420
 H         -3.1272800921        2.5190001889       -2.4989142417
 H         -1.6197003326        3.1247028783       -1.8379888781
 O         -2.0540312536        0.5866114841       -1.5895140155
 C         -1.7628223109       -0.6963032027       -1.1545373778
 O         -1.3667046762       -1.4547982886       -2.0593537364
 O         -2.4490150261       -0.2065431534        2.3565175791
 C         -1.5768372760       -2.3534606734        0.7462623830
 C         -0.2202689828       -2.7621642270        0.2254040849
 C          0.0712852290       -4.0191808537       -0.2850096125
 C          1.3500550316       -4.3127010180       -0.7294319310
 C          2.3533867054       -3.3643504001       -0.6889850913
 C          2.0673619484       -2.0956462175       -0.1913195734
 C          0.7988924204       -1.8179955623        0.2843245664
 H          0.5898831166       -0.8371050168        0.6884608776
 N          3.0509987207       -1.0932411745       -0.2066082692
 S          2.8106334271        0.4022347152        0.5101421809
 O          2.6340142808        0.2669526568        1.9413019064
 O          1.7718558532        1.1054023471       -0.2012445841
 C          4.3920103146        1.1508225743        0.1678015201
 C          5.3712901170        1.1544281042        1.1429057598
 C          6.6045978783        1.7170349735        0.8531384282
 C          6.8373129601        2.2617237281       -0.4005986390
 C          5.8443124948        2.2521689604       -1.3690865261
 C          4.6091303996        1.6916414939       -1.0853626052
 H          3.8037258460        1.6682371103       -1.8012520361
 H          6.0270322921        2.6790630044       -2.3420041770
 H          7.7973804431        2.6994062542       -0.6239295744
 H          7.3770130625        1.7289427116        1.6049822449
 H          5.1405980468        0.7288358902        2.1061734246
 H          3.9972183302       -1.4328679935       -0.1174592207
 H          3.3441665722       -3.5904313381       -1.0510282144
 H          1.5643640627       -5.2952548031       -1.1218565744
 H         -0.7024671926       -4.7661125060       -0.3511379854
 H         -1.4756151356       -2.1855082828        1.8332202189
 C         -2.6460366495       -3.4223405149        0.5727050845
 C         -4.0760842395       -3.0555734833        0.3141862036
 C         -3.2672593321       -3.7175172564       -0.7585412640
 H         -3.4888896873       -4.7458845382       -1.0039131761
 H         -2.9414497152       -3.1243926741       -1.5982715506
 H         -4.8484270364       -3.6264865808        0.8076525160
 H         -4.3111277246       -2.0067493741        0.2027152877
 H         -2.4855167263       -4.2691016788        1.2330681496
