  62
        -98.94328528
 C         -1.2740488898       -1.2185660749        0.2641643650
 C         -2.1637358831       -0.7591414286        1.2671641211
 C         -2.8223441975        0.5286765751        1.0107844388
 C         -2.5060546533        1.2162192407       -0.1014830954
 C         -3.1375101462        2.5135824754       -0.5140894163
 C         -4.3619289234        2.2743501888       -1.4087608999
 C         -5.3458620724        1.2473762944       -0.8483863403
 H         -4.8670148552        0.2655956878       -0.8320309413
 H         -6.1830394030        1.1835917460       -1.5468420999
 C         -5.8759051096        1.5745502816        0.5547283441
 H         -6.9549447535        1.4068767066        0.5698226968
 H         -5.7099097046        2.6291956445        0.7775035705
 C         -5.2778018235        0.7204939714        1.6744319904
 H         -5.3621512218       -0.3376836973        1.4131925245
 H         -5.8712822947        0.8807691405        2.5786137111
 C         -3.8146839770        1.0149457670        2.0291267357
 H         -3.5827104298        0.4787703012        2.9542840177
 H         -3.6891631793        2.0841018584        2.2124579299
 H         -4.0164354623        1.9197910032       -2.3824401373
 H         -4.8738943125        3.2270122855       -1.5559559093
 H         -2.4013680868        3.0942856134       -1.0713660728
 H         -3.4283901091        3.0697655477        0.3749814692
 O         -1.5988538262        0.7772211508       -1.0072681128
 C         -0.9585854083       -0.4461889568       -0.8566232630
 O         -0.1539874538       -0.7079828496       -1.7664347920
 O         -2.3891710580       -1.3932900952        2.3337263917
 C         -0.5695186610       -2.5439015409        0.4976633879
 C          0.9091883710       -2.3665802630        0.2644242255
 C          1.6374775266       -3.0683389444       -0.6855992000
 C          2.9838594590       -2.8038428101       -0.8719008551
 C          3.6316341009       -1.8427542896       -0.1181255266
 C          2.9119492717       -1.1393113213        0.8393165934
 C          1.5667838064       -1.4086745942        1.0276658750
 H          1.0058325814       -0.8513538573        1.7688161008
 N          3.5582836279       -0.1473630176        1.6096909630
 S          4.1807250118        1.1593221549        0.7649067494
 O          5.3063676080        0.7163291833       -0.0172186260
 O          4.4567548751        2.1625950503        1.7691178372
 C          2.8652679100        1.7087783497       -0.3048747690
 C          2.7824012363        1.2158417681       -1.5908667649
 C          1.7340113580        1.6261837410       -2.3976484745
 C          0.7918614717        2.5154826677       -1.9067015771
 C          0.8844135937        2.9954718636       -0.6096126714
 C          1.9279762662        2.5857117893        0.2034039845
 H          2.0399686708        2.9432986485        1.2149476150
 H          0.1451492108        3.6815447930       -0.2266822675
 H         -0.0253994958        2.8259111724       -2.5384575485
 H          1.6467219751        1.2405571729       -3.3999757323
 H          3.5347479787        0.5268399155       -1.9381029706
 H          2.9840195342        0.1962197017        2.3670997469
 H          4.6740556818       -1.6110940474       -0.2660068663
 H          3.5356674468       -3.3502829780       -1.6217150964
 H          1.1458257247       -3.8027909378       -1.3018437502
 H         -0.7215555055       -2.7477598756        1.5711861759
 C         -1.1700005227       -3.7224321313       -0.2525699632
 C         -2.6232092443       -3.7384686129       -0.6194565439
 C         -1.5813424591       -3.6373588356       -1.6906740196
 H         -1.4136248007       -4.4981920318       -2.3214884397
 H         -1.4465675600       -2.6936878579       -2.1945566724
 H         -3.1703553159       -4.6633769666       -0.5145101337
 H         -3.2060598925       -2.8585509372       -0.3882481308
 H         -0.7494686332       -4.6675212458        0.0776887781
