  62
        -98.93865776
 C         -1.2913163513       -1.2321583806       -0.5481649088
 C         -2.6346164217       -1.5331252165       -0.2235895618
 C         -3.6100313557       -0.4376619863       -0.3615223860
 C         -3.1858900418        0.7775935067       -0.7563264481
 C         -3.9448185805        2.0636567105       -1.0098236585
 C         -5.3772892320        2.2385741795       -0.5120348178
 C         -5.5237859922        2.2942986522        1.0082196478
 H         -6.5890856423        2.3226673220        1.2476129539
 H         -5.0778760400        3.2254563800        1.3665853698
 C         -4.8727064416        1.1466205484        1.7761268944
 H         -5.0530161821        1.3127916050        2.8417074833
 H         -3.7914827368        1.1701431005        1.6256474871
 C         -5.3906107946       -0.2481163128        1.4303161260
 H         -6.4766776020       -0.2752395525        1.5385526429
 H         -4.9652059026       -0.9463135447        2.1562519301
 C         -5.0239405708       -0.7618836987        0.0269013564
 H         -5.7215299738       -0.3972900396       -0.7232974863
 H         -5.0965530489       -1.8533237507        0.0381913427
 H         -6.0188131769        1.4675513442       -0.9283158671
 H         -5.7310418611        3.1928035972       -0.9119813674
 H         -3.9373326348        2.2030641286       -2.0964387610
 H         -3.3225264032        2.8613270852       -0.5927849637
 O         -1.8766190375        1.0203945884       -1.0568714043
 C         -0.9008674527        0.0406832582       -0.9611694801
 O          0.2401560025        0.4284447150       -1.2683893184
 O         -3.0094909385       -2.6731659773        0.1622378121
 C         -0.2411900844       -2.3190155236       -0.3911920796
 C          0.6729761431       -1.9169223237        0.7387292427
 C          0.2187923696       -2.0579386119        2.0483944164
 C          0.9988830255       -1.6540793504        3.1141760018
 C          2.2418261873       -1.0855087058        2.8949888594
 C          2.7005923477       -0.9343039945        1.5915589941
 C          1.9228325297       -1.3581135784        0.5221053413
 H          2.3035376177       -1.2294154288       -0.4763240541
 N          3.9587438776       -0.3662345301        1.3467339980
 S          4.2709344853        0.5520134874       -0.0079672114
 O          4.3606320354       -0.2891046468       -1.1754378050
 O          5.4887626372        1.2617843685        0.3339436636
 C          2.9570297030        1.7454737756       -0.1911912945
 C          2.2854687147        2.2226975157        0.9149090177
 C          1.3181176016        3.1988330091        0.7400502726
 C          1.0494638217        3.6893481721       -0.5270461345
 C          1.7389317398        3.2057703785       -1.6263270605
 C          2.6999897649        2.2236887836       -1.4585250114
 H          3.2432627321        1.8051571024       -2.2906774546
 H          1.5217144989        3.5795154041       -2.6143287509
 H          0.2918791960        4.4459503038       -0.6604581352
 H          0.7725660389        3.5687605987        1.5940909329
 H          2.5013297734        1.8282116394        1.8947789649
 H          4.4385035148       -0.0071575047        2.1588282521
 H          2.8536453059       -0.7641889147        3.7243312050
 H          0.6366961879       -1.7757373441        4.1237548664
 H         -0.7601545020       -2.4853492599        2.2157825928
 H         -0.7937759791       -3.2180226787       -0.0848457661
 C          0.4797570162       -2.6093991676       -1.6893422629
 C          1.2568292752       -3.8833113351       -1.8269188646
 C         -0.0248076605       -3.7013846340       -2.5820418045
 H          0.0215815380       -3.5551905967       -3.6508439588
 H         -0.8935057568       -4.2535471356       -2.2542284295
 H          2.1878514097       -3.8609779025       -2.3727853909
 H          1.2577983890       -4.5591370237       -0.9849158828
 H          0.8764793953       -1.7226006886       -2.1693137052
