  62
        -98.95113464
 C         -1.9896271759        0.9136245946       -0.1154406762
 C         -1.5273764235        1.8451138056        0.8462530158
 C         -0.4863744102        2.7775516770        0.3933384528
 C         -0.0675908184        2.7262736504       -0.8840658556
 C          1.0091922017        3.5896702728       -1.4732814490
 C          2.3879149048        2.9231193724       -1.3730772546
 C          2.7289755022        2.4014760363        0.0227445750
 H          2.0770024119        1.5611062279        0.2719250252
 H          3.7467499975        2.0054754990       -0.0169892630
 C          2.6317453226        3.4489263320        1.1403861055
 H          3.5029211479        3.3449028606        1.7905461076
 H          2.6584985118        4.4541041021        0.7167831427
 C          1.3956325689        3.3005331200        2.0303532274
 H          1.5478177820        3.9030820283        2.9303832121
 H          1.3029659981        2.2570879492        2.3457384126
 C          0.0661354269        3.7421038863        1.4033257254
 H         -0.6776969581        3.7968967030        2.2039099813
 H          0.1764617582        4.7384473118        0.9688955755
 H          3.1419327421        3.6492517224       -1.6825317564
 H          2.4205911498        2.0794600718       -2.0661924103
 H          1.0194190975        4.5478106559       -0.9573033943
 H          0.7743217540        3.7567964945       -2.5259470459
 O         -0.5666168736        1.8489531556       -1.7907966012
 C         -1.5045245277        0.8924147501       -1.4225710861
 O         -1.8159166806        0.1077832206       -2.3379572015
 O         -1.9684244650        1.8933728925        2.0266155355
 C         -2.9769972353       -0.1582356687        0.3166259108
 C         -2.2759718942       -1.4944548456        0.2541733049
 C         -2.7345851681       -2.5824471771       -0.4758468759
 C         -1.9936128328       -3.7512750722       -0.5238464364
 C         -0.7820012127       -3.8534877887        0.1346290632
 C         -0.3189706629       -2.7738368553        0.8797954403
 C         -1.0794131221       -1.6179161107        0.9515747000
 H         -0.7203540892       -0.7867780708        1.5414831723
 N          0.9044982698       -2.8454777913        1.5705741633
 S          2.0287649071       -1.6126629302        1.4628764527
 O          3.1953620864       -2.1305908993        2.1430612588
 O          1.4768704528       -0.3888119306        1.9818310528
 C          2.3847318404       -1.4446966539       -0.2756608901
 C          1.4626098295       -0.8104951249       -1.0827772291
 C          1.7115734139       -0.7092707306       -2.4418051294
 C          2.8801467678       -1.2379069982       -2.9684081262
 C          3.7996636679       -1.8706387349       -2.1448881757
 C          3.5499571520       -1.9820521687       -0.7864478308
 H          4.2365678573       -2.4633692357       -0.1090176227
 H          4.7077851096       -2.2789034917       -2.5583585539
 H          3.0725187296       -1.1544869972       -4.0264549713
 H          0.9799930496       -0.2228295059       -3.0689692198
 H          0.5622756094       -0.4048110946       -0.6487545838
 H          1.3679782474       -3.7398920784        1.4960012721
 H         -0.1980276987       -4.7595134158        0.0778903139
 H         -2.3583778653       -4.5899553316       -1.0970030611
 H         -3.6649891908       -2.5130391320       -1.0144709047
 H         -3.2010884990        0.0609330888        1.3711364297
 C         -4.2603893713       -0.0935302410       -0.4810526752
 C         -5.5278563002       -0.6450120655        0.0982110119
 C         -5.3463442572        0.8364802720       -0.0332395941
 H         -5.9157059790        1.3632323982       -0.7842043539
 H         -5.1685004273        1.4134278017        0.8627969093
 H         -6.2270113087       -1.1349708022       -0.5622847486
 H         -5.4789576374       -1.0752926954        1.0871723317
 H         -4.0974930299       -0.1925842359       -1.5477925186
