  62
        -98.94037889
 C          2.3456438979        0.8218338426       -0.1950062295
 C          3.5927540880        1.1403451915        0.3946361580
 C          4.7648895690        0.4615069526       -0.1727616455
 C          4.5970698344       -0.3874633274       -1.2032646795
 C          5.6945029479       -1.1880286307       -1.8413815710
 C          5.8385612551       -2.5621405035       -1.1722173028
 C          5.9089713082       -2.5009723155        0.3536222388
 H          4.9510133797       -2.1451157736        0.7399419169
 H          6.0404050876       -3.5234188455        0.7142913775
 C          7.0373762763       -1.6162080487        0.9017926859
 H          7.7812880016       -1.4406267033        0.1239820696
 H          7.5366807190       -2.1489716213        1.7138041564
 C          6.5727848771       -0.2739310518        1.4700596880
 H          5.7612806095       -0.4392214109        2.1832834945
 H          7.4067264863        0.1690907052        2.0208990974
 C          6.1043240722        0.7615119790        0.4396341055
 H          5.9888486819        1.7177133622        0.9582031720
 H          6.8645185804        0.8803877209       -0.3348650734
 H          4.9774692291       -3.1740162413       -1.4506155233
 H          6.7379269389       -3.0429248205       -1.5611861924
 H          6.6295202399       -0.6361540439       -1.7685261749
 H          5.4475503006       -1.3307004029       -2.8946622993
 O          3.3857631747       -0.6542448765       -1.7551175427
 C          2.2279334271       -0.0733885651       -1.2580753935
 O          1.1871093961       -0.4280548010       -1.8430553378
 O          3.7181200173        1.9491881807        1.3534291576
 C          1.0889276231        1.4683708702        0.3602889564
 C          0.1627546818        0.4004615549        0.8870690535
 C          0.6286598325       -0.4466984679        1.8906003469
 C         -0.1741030598       -1.4481895842        2.3993622693
 C         -1.4623272319       -1.6223642506        1.9240373950
 C         -1.9350022795       -0.7868521993        0.9194020876
 C         -1.1253322097        0.2206182214        0.4112710137
 H         -1.5186782759        0.8532782713       -0.3661507772
 N         -3.2241556542       -0.9666732873        0.3945667530
 S         -4.0939297772        0.3724735191       -0.1457385077
 O         -3.6629161281        0.7165430709       -1.4770608767
 O         -4.0388735009        1.4309805018        0.8378854950
 C         -5.7328078831       -0.3282653284       -0.2097978382
 C         -6.6341836128       -0.0569315623        0.8019071413
 C         -7.8937713072       -0.6335297621        0.7497369296
 C         -8.2272450574       -1.4694613934       -0.3051435745
 C         -7.3118985261       -1.7318918457       -1.3139825973
 C         -6.0517221277       -1.1574387262       -1.2689552241
 H         -5.3108793305       -1.3246928175       -2.0336089842
 H         -7.5754424168       -2.3802889421       -2.1339747545
 H         -9.2076400170       -1.9173666556       -0.3434106186
 H         -8.6086759930       -0.4289983705        1.5303240844
 H         -6.3323859476        0.6040634369        1.5983427629
 H         -3.7962702523       -1.5839735994        0.9541487509
 H         -2.0917819132       -2.4046093078        2.3202917234
 H          0.2016182835       -2.0959502976        3.1772162998
 H          1.6341504418       -0.3055730715        2.2638607282
 H          1.4260447752        2.0777792478        1.2122137373
 C          0.4489185602        2.3803445127       -0.6635110150
 C         -0.4632126723        3.4810413252       -0.2140991730
 C          0.8949225276        3.8073622153       -0.7568828137
 H          0.9652395799        4.2621192884       -1.7335300029
 H          1.6564119224        4.1358656084       -0.0646870931
 H         -1.3328109685        3.7051217443       -0.8140280197
 H         -0.6289747029        3.5884181418        0.8474747502
 H          0.2096641325        1.8704539170       -1.5905835117
