  62
        -98.93970338
 C          2.2319676302       -0.0486026964       -0.4610521615
 C          3.3682796783        0.2949624809       -1.2402252194
 C          4.4957815746        0.8907029323       -0.5164528051
 C          4.3854467594        1.1354250878        0.8013340841
 C          5.4400786961        1.7528069471        1.6788784668
 C          6.4838586844        0.7528790712        2.1957413597
 C          7.4826986239        0.2542099074        1.1504728967
 H          7.9321522683        1.1079982590        0.6425154257
 H          8.2801913066       -0.2605067643        1.6900443463
 C          6.8880037673       -0.7092986348        0.1137593429
 H          5.9360086879       -1.0986542548        0.4826436774
 H          7.5545769693       -1.5653931292       -0.0130088801
 C          6.6700713357       -0.0957413401       -1.2695275962
 H          6.2118840008       -0.8521411473       -1.9122120421
 H          7.6337772657        0.1760237322       -1.7056475719
 C          5.7641680240        1.1425644913       -1.2740881794
 H          6.2938191680        1.9982666854       -0.8562629373
 H          5.4943753175        1.3671433828       -2.3088595080
 H          7.0426690807        1.2490506412        2.9925756738
 H          5.9627094041       -0.0997685912        2.6374973773
 H          5.9409528142        2.5572564677        1.1396085377
 H          4.9184538261        2.1809099561        2.5375465561
 O          3.2550094571        0.8568740636        1.5006357489
 C          2.1597968261        0.2413942537        0.9026239234
 O          1.2213971568        0.0260140634        1.6918059133
 O          3.4354032125        0.1122938213       -2.4844074875
 C          1.0742252880       -0.7107481909       -1.1870774550
 C         -0.2262141089       -0.0236445036       -0.8647243019
 C         -0.5490657397        1.1683667602       -1.5058268862
 C         -1.7340096380        1.8242967850       -1.2286365798
 C         -2.6212385051        1.3054219563       -0.3015550765
 C         -2.3024584570        0.1230213651        0.3507673614
 C         -1.1185622115       -0.5386938495        0.0627244782
 H         -0.8803596724       -1.4526335230        0.5854604726
 N         -3.2175183250       -0.4061292074        1.2958859561
 S         -4.5217717232       -1.2066340373        0.5929068986
 O         -5.1051048388       -2.0104279904        1.6448239518
 O         -4.1197490500       -1.9181406795       -0.6016146728
 C         -5.6321990266        0.1146851250        0.1631908052
 C         -5.8143161889        0.4501078760       -1.1638980758
 C         -6.6715164861        1.4929124625       -1.4787906974
 C         -7.3267352008        2.1775856703       -0.4665386454
 C         -7.1337767532        1.8269466407        0.8616467595
 C         -6.2783204708        0.7853690383        1.1833461830
 H         -6.1031972981        0.4750472274        2.2000364686
 H         -7.6460354453        2.3613233050        1.6454853638
 H         -7.9925603724        2.9891707752       -0.7143511356
 H         -6.8227195424        1.7674283971       -2.5103702702
 H         -5.2807116023       -0.1084978352       -1.9158559426
 H         -2.7690517619       -1.0282634767        1.9548915321
 H         -3.5422001727        1.8147956810       -0.0686804685
 H         -1.9689511867        2.7473009228       -1.7361824894
 H          0.1464937753        1.5768049006       -2.2261746590
 H          1.2918629851       -0.5391609108       -2.2540131248
 C          0.9984533856       -2.2200131745       -1.0009751490
 C          2.2483037567       -3.0470033987       -1.0012469553
 C          1.4368029690       -2.9162768719        0.2509800645
 H          0.8655946776       -3.7715740747        0.5832054824
 H          1.8240342530       -2.3142489286        1.0582349210
 H          2.2442934416       -3.9914956339       -1.5238513286
 H          3.1897572217       -2.5198185006       -1.0550616059
 H          0.1371376506       -2.6427893670       -1.5111626273
