  62
        -98.94842049
 C         -0.7779766069       -1.2319048504        0.0787306300
 C         -1.5153058537       -0.6556817594        1.1394425217
 C         -2.3981569531        0.4595954413        0.7740165514
 C         -2.4408379220        0.8725239474       -0.5062044762
 C         -3.3980945009        1.8974779462       -1.0411982547
 C         -4.6991778713        1.2360586403       -1.5199492771
 C         -5.3200140973        0.2756184150       -0.5056811518
 H         -6.2469142517       -0.1033988632       -0.9415619476
 H         -4.6554752783       -0.5807175419       -0.3699858860
 C         -5.6189866011        0.9038959003        0.8626294208
 H         -6.6168693199        0.5948929626        1.1809331734
 H         -5.6286378170        1.9911703837        0.7782583849
 C         -4.6505268460        0.4912566578        1.9725074905
 H         -4.5741851518       -0.5985455702        2.0070174070
 H         -5.0661750557        0.8198966767        2.9289389091
 C         -3.2329491668        1.0678417060        1.8654704368
 H         -3.2844055793        2.1527307406        1.7532171290
 H         -2.7121597679        0.8449787834        2.8017799031
 H         -5.4160979362        2.0226474015       -1.7621822837
 H         -4.4862990245        0.6762489919       -2.4333317310
 H         -3.6174848022        2.6275068733       -0.2646803498
 H         -2.9310772153        2.4013962435       -1.8875009970
 O         -1.6565410394        0.3471123890       -1.4802142626
 C         -0.8037163820       -0.7136384587       -1.2160085008
 O         -0.1411774865       -1.0974809938       -2.1970411312
 O         -1.4537374082       -1.0672610925        2.3305021518
 C          0.0751976627       -2.4563934652        0.3536495544
 C          1.5114260284       -2.2038390390       -0.0261175900
 C          2.2587579065       -3.0672531132       -0.8164661651
 C          3.5741764780       -2.7694643699       -1.1268527863
 C          4.1688169932       -1.6130150346       -0.6588287272
 C          3.4324810666       -0.7490209883        0.1455498406
 C          2.1173508557       -1.0508207108        0.4584607200
 H          1.5545824951       -0.3811103244        1.0934036234
 N          4.0164825386        0.4202343061        0.6496145747
 S          3.1148023596        1.7321713876        1.1187080092
 O          4.0727165523        2.8182029963        1.1600033200
 O          2.4354265648        1.4603591501        2.3615382179
 C          1.9240765452        2.0761623287       -0.1652463698
 C          2.2073907698        1.7968625682       -1.4865600546
 C          1.2959138206        2.1723887183       -2.4602777309
 C          0.1350011107        2.8376978142       -2.1024575441
 C         -0.1345412299        3.1143312436       -0.7714521283
 C          0.7631238989        2.7229638524        0.2074104712
 H          0.5836642561        2.9019290437        1.2560002703
 H         -1.0382599466        3.6305763103       -0.4905149352
 H         -0.5650423846        3.1367988168       -2.8665620196
 H          1.4943933796        1.9419868004       -3.4944161778
 H          3.1183332177        1.2848307143       -1.7503173096
 H          4.9127948946        0.6738233297        0.2631229436
 H          5.1925899633       -1.3777686514       -0.9059231414
 H          4.1425387346       -3.4450899370       -1.7476415860
 H          1.8110860577       -3.9707011134       -1.1956341925
 H          0.0333319427       -2.6037227937        1.4435536367
 C         -0.5310368856       -3.6676144252       -0.3257861163
 C         -0.3323409989       -5.0372416543        0.2491936896
 C         -1.6729493246       -4.3739632618        0.3390301662
 H         -2.4777773531       -4.7476105167       -0.2762239648
 H         -1.9964691819       -3.9975707826        1.2987644309
 H         -0.2194767842       -5.8705427868       -0.4277633315
 H          0.2530660576       -5.1194098049        1.1524634137
 H         -0.5692308713       -3.5633510170       -1.4045345250
