  62
        -98.94468304
 C         -2.0175404200       -0.7549523410        0.5626990989
 C         -1.9583566304       -0.0510954903       -0.6643086107
 C         -2.0004388106        1.4114866996       -0.5619017899
 C         -2.0333146704        1.9963013390        0.6487662504
 C         -2.0275128906        3.4770802988        0.9177000812
 C         -3.4107976207        4.1368093287        0.8297405518
 C         -3.9722815410        4.2856312093       -0.5847894580
 H         -4.8337445311        4.9529413292       -0.5183000275
 H         -3.2299820512        4.7720326098       -1.2181792379
 C         -4.4179394309        2.9666211696       -1.2311026687
 H         -4.5302084107        2.2024122192       -0.4586989990
 H         -5.3974588510        3.1011748297       -1.6951238584
 C         -3.4734177311        2.4394790803       -2.3113990491
 H         -3.4504893313        3.1371509707       -3.1513971287
 H         -3.8652641310        1.4861977804       -2.6745276595
 C         -2.0346803609        2.2063758203       -1.8317087395
 H         -1.5017413710        1.6298519808       -2.5919143499
 H         -1.5204099911        3.1578532403       -1.6962881791
 H         -4.1094760305        3.5615110882        1.4414339616
 H         -3.3242110608        5.1325531584        1.2706302223
 H         -1.6462147004        3.6045521483        1.9334306212
 H         -1.3401016708        3.9674414893        0.2274171913
 O         -2.0581973301        1.2840418783        1.8082579500
 C         -2.0522778299       -0.1012978116        1.7925127293
 O         -2.0826222096       -0.6289721422        2.9250407290
 H          0.4630990301       -1.1742254608        0.9506414282
 C          0.5152937601       -1.9725828804        0.2232238778
 C         -0.6344253599       -2.6812632704       -0.1019829724
 C         -0.5374863999       -3.7161002699       -1.0227878829
 C          0.6751683800       -4.0014408094       -1.6270054133
 C          1.8050652700       -3.2589727694       -1.3389286131
 C          1.7221975400       -2.2354050899       -0.4007848826
 N          2.8521919900       -1.4705283399       -0.0601471724
 S          2.6207030298        0.1535702498        0.3439622585
 O          2.2538071800        0.2371811890        1.7369133486
 O          1.7283959095        0.7912134102       -0.5974161910
 C          4.2842051597        0.7618803202        0.1309826685
 C          5.2068891799        0.5301795398        1.1337672482
 C          6.5108991398        0.9648883501        0.9577520482
 C          6.8689918595        1.6195865408       -0.2115353315
 C          5.9316005092        1.8474855112       -1.2076548312
 C          4.6257779093        1.4137976109       -1.0386607512
 H          3.8604750192        1.5732405611       -1.7813148210
 H          6.2115557290        2.3597401017       -2.1138804410
 H          7.8844980694        1.9568775910       -0.3460343515
 H          7.2414726300        0.7917123498        1.7312981280
 H          4.8781595001        0.0255141093        2.0272612180
 H          3.6115913599       -1.5816939295       -0.7186486026
 H          2.7425666699       -3.4654536890       -1.8323277434
 H          0.7357791800       -4.8021372390       -2.3484518037
 H         -1.4137481598       -4.2886522299       -1.2793178930
 C         -1.9257164098       -2.2705034010        0.5653706581
 H         -1.8794447295       -2.5725706515        1.6225611779
 C         -3.1565208798       -2.8840920308       -0.0685283820
 C         -3.6388936395       -4.2339879111        0.3680322574
 C         -4.4062325096       -3.0047281415        0.7488973682
 H         -5.3555169498       -2.8173957613        0.2700809785
 H         -4.3598173395       -2.6663683520        1.7741154384
 H         -4.0667169096       -4.8930599808       -0.3722044429
 H         -3.0786000593       -4.7389459715        1.1403445770
 H         -3.2640740001       -2.6106463203       -1.1118522418
 O         -1.8761886605       -0.6148632497       -1.7871765810
