  62
        -98.93736563
 C          2.2824817249        0.5108106891       -0.2621859254
 C          3.5331645640        0.9826623520       -0.7373210288
 C          4.7093065930        0.6364796353        0.0709502210
 C          4.5379111861       -0.0439808280        1.2185362186
 C          5.6489746755       -0.5129205020        2.1116527818
 C          6.1072343434       -1.9273990215        1.7295321383
 C          6.3810121390       -2.1062016311        0.2361068395
 H          6.7260478943       -3.1320089896        0.0894391130
 H          5.4423061917       -2.0029463836       -0.3134001623
 C          7.4164742066       -1.1309348976       -0.3412882361
 H          8.0049597313       -0.6947450251        0.4666000731
 H          8.1046869208       -1.6891094072       -0.9794500694
 C          6.8248636976       -0.0102077569       -1.1983344226
 H          6.1603553901       -0.4380980616       -1.9535359968
 H          7.6450025567        0.4825838671       -1.7271161482
 C          6.0537885969        1.0754874421       -0.4369773061
 H          6.6682310531        1.4590007377        0.3799410934
 H          5.8568729401        1.8949628117       -1.1344084998
 H          5.3270873930       -2.6344543243        2.0211053458
 H          7.0091638918       -2.1632014878        2.2971804160
 H          5.2822748562       -0.5241605476        3.1393331023
 H          6.4830905715        0.1823868400        2.0404451925
 O          3.3186441779       -0.4235181476        1.6760841444
 C          2.1598476547       -0.1680150998        0.9512337265
 O          1.1245030921       -0.5855766036        1.5012813233
 O          3.6583955025        1.6661913106       -1.7885715795
 C          1.0550351238        0.8233469357       -1.0981832569
 C         -0.0655587563        1.3402715660       -0.2329014073
 C          0.1089199788        2.5488058336        0.4374487535
 C         -0.8911581525        3.0633494771        1.2386637632
 C         -2.0952276684        2.3944289461        1.3733215677
 C         -2.2764625447        1.1847717505        0.7146031761
 C         -1.2645978023        0.6643346590       -0.0802395206
 H         -1.4265128695       -0.2858353597       -0.5610731242
 N         -3.4750386139        0.4669908873        0.8503907823
 S         -4.0478608421       -0.4009631071       -0.4769878394
 O         -3.4354471699       -1.7053149481       -0.4953755280
 O         -3.9052872066        0.3869569380       -1.6814283357
 C         -5.7711917127       -0.5539206631       -0.0420958823
 C         -6.6784613433        0.3636760733       -0.5375699745
 C         -8.0105217637        0.2550482505       -0.1702782197
 C         -8.4102349010       -0.7618084045        0.6838071869
 C         -7.4882849505       -1.6755384322        1.1727569973
 C         -6.1549829029       -1.5731912041        0.8088784716
 H         -5.4041803302       -2.2638313063        1.1563550506
 H         -7.8029885457       -2.4664872024        1.8342665733
 H         -9.4473601227       -0.8447472252        0.9679758061
 H         -8.7300799434        0.9618270858       -0.5510125075
 H         -6.3234862181        1.1314727974       -1.2060844307
 H         -4.2068574354        0.9964785140        1.3034137833
 H         -2.8808475277        2.7982562081        1.9938740341
 H         -0.7380229517        3.9988963364        1.7555898339
 H          1.0473693460        3.0754576184        0.3256439704
 H          1.3765813140        1.6471123006       -1.7586306031
 C          0.6205387215       -0.3147057972       -2.0095797444
 C          1.6189770617       -1.2731808635       -2.5839606171
 C          0.6265407187       -1.7456070155       -1.5663231794
 H         -0.1862780738       -2.3814530608       -1.8874312339
 H          0.9704058606       -1.9579099295       -0.5658803448
 H          1.4982199812       -1.5884297449       -3.6093751527
 H          2.6491321944       -1.1626783736       -2.2776732839
 H         -0.1938336854       -0.0173286580       -2.6651233546
