  62
        -98.93394293
 C         -2.4202958386       -0.6463996077        0.1807919073
 C         -2.5790031070        0.4617344287        1.0454365119
 C         -2.6610694072        1.7987524240        0.4282353655
 C         -2.5585461969        1.8973713906       -0.9097284232
 C         -2.5814505323        3.1408213707       -1.7582917753
 C         -1.2509888676        3.9091757828       -1.7142109635
 C         -0.6317402883        4.0454150581       -0.3255297406
 H         -0.4574769888        3.0495430833        0.0890650688
 H          0.3508718625        4.5099451305       -0.4459480494
 C         -1.4284389125        4.8922650127        0.6647625679
 H         -1.5371807625        5.9018846870        0.2616792592
 H         -0.8349422845        4.9611465204        1.5802058447
 C         -2.8169546157        4.3694256353        1.0382689049
 H         -3.5344682709        4.5609887190        0.2450326409
 H         -3.1548124505        4.9401155560        1.9083635588
 C         -2.8575484639        2.8992076807        1.4426387775
 H         -2.1075199171        2.7214261681        2.2225747588
 H         -3.8236816309        2.6939508115        1.9202669682
 H         -1.4089686974        4.8996332950       -2.1448877563
 H         -0.5325294089        3.3746507227       -2.3402765545
 H         -3.4093273740        3.7784830111       -1.4625350099
 H         -2.7605157799        2.8152847372       -2.7854502903
 O         -2.3729546610        0.8058968441       -1.7041095735
 C         -2.2661009342       -0.4759986935       -1.1951631411
 O         -2.0503944484       -1.3461694616       -2.0599866613
 O         -2.6439623908        0.3445730366        2.3012272699
 C         -2.2626448178       -2.0186190197        0.8097362028
 C         -1.0130120888       -2.6784253102        0.2795818675
 C         -0.9545640488       -3.9866435115       -0.1794638493
 C          0.2428064834       -4.5116602164       -0.6370747837
 C          1.3948482488       -3.7495226203       -0.6551661981
 C          1.3435219929       -2.4314022926       -0.2093206833
 C          0.1522534575       -1.9202673282        0.2725764072
 H          0.1222418157       -0.9016412351        0.6333496946
 N          2.4816200507       -1.6124157480       -0.2809013629
 S          2.5458095532       -0.1309397858        0.5060697805
 O          2.3546530581       -0.2998975456        1.9314440401
 O          1.6593216451        0.7933466886       -0.1552982254
 C          4.2412673606        0.3067260532        0.1719072241
 C          4.5523970273        0.8650674491       -1.0534002497
 C          5.8741745973        1.1736908349       -1.3330795050
 C          6.8576619461        0.9194254583       -0.3884753800
 C          6.5302226389        0.3609978320        0.8378871573
 C          5.2101054256        0.0492500177        1.1233237961
 H          4.9061961842       -0.3774113813        2.0656479923
 H          7.2962740883        0.1675757942        1.5713002416
 H          7.8854814938        1.1607110702       -0.6088001902
 H          6.1316203222        1.6105494046       -2.2844488949
 H          3.7521921343        1.0509892137       -1.7511347647
 H          3.3567975503       -2.1149783325       -0.2543513428
 H          2.3226485482       -4.1584124891       -1.0241447391
 H          0.2759430099       -5.5309456813       -0.9911243616
 H         -1.8460452635       -4.5916488622       -0.1958735208
 H         -2.0923594119       -1.8038923619        1.8797695626
 C         -3.5000538975       -2.9006739840        0.7400460960
 C         -4.8611721423       -2.3113623034        0.5240757261
 C         -4.2320301339       -3.1538144175       -0.5425981876
 H         -4.6336623336       -4.1415276046       -0.7158060467
 H         -3.8589593426       -2.6681752957       -1.4301138105
 H         -5.6902086557       -2.7178329259        1.0839035997
 H         -4.9235405487       -1.2447917130        0.3616162055
 H         -3.4471126400       -3.7285911161        1.4406141547
