  62
        -98.93462038
 C          1.5814873975        0.6290529751        0.7718653268
 C          2.9309844504        0.7939621080        1.1729312083
 C          3.9551240086        0.7206024556        0.1164914901
 C          3.5685916479        0.4775221002       -1.1473684769
 C          4.4451393892        0.3029971977       -2.3566613104
 C          4.7618791763       -1.1843462491       -2.5876669565
 C          5.9837347583       -1.7080949709       -1.8336822780
 H          6.0162889866       -2.7901872231       -1.9806709221
 H          6.8876794254       -1.2896183729       -2.2812819860
 C          6.0014076317       -1.4150567698       -0.3311298181
 H          5.0098886982       -1.5931567410        0.0894704495
 H          6.6837830791       -2.1251398909        0.1402039752
 C          6.4623719955        0.0121816434        0.0001540555
 H          7.2584272126       -0.0294655666        0.7464733439
 H          6.8987380013        0.4612270700       -0.8918682128
 C          5.3746209742        0.9372527554        0.5654297695
 H          5.6504251532        1.9773624077        0.3614966219
 H          5.3385682334        0.8320825436        1.6543577395
 H          3.8779489429       -1.7628711596       -2.3055996113
 H          4.9287616740       -1.3455886706       -3.6547288892
 H          5.3545222601        0.8890636151       -2.2624115184
 H          3.8741996284        0.6726666737       -3.2110249364
 O          2.2643176389        0.2982955414       -1.4893530780
 C          1.2398201599        0.3589720945       -0.5543763476
 O          0.1099640518        0.1681867571       -1.0377544016
 O          3.2702551308        0.9871184602        2.3714776485
 C          0.5218008367        0.6714498934        1.8591001380
 C         -0.3187921847       -0.5786779203        1.8094241005
 C          0.2375611456       -1.7672795404        2.2754149402
 C         -0.4896778484       -2.9411180036        2.2685707941
 C         -1.7869062804       -2.9511362675        1.7876383497
 C         -2.3476224804       -1.7759837398        1.3045259015
 C         -1.6170500523       -0.5947630269        1.3216984775
 H         -2.0606453209        0.3089350982        0.9373581918
 N         -3.6726564630       -1.7599675659        0.8209871140
 S         -3.9031424615       -1.4048420740       -0.8104664836
 O         -5.1965879254       -1.9859154678       -1.1151783900
 O         -2.8002982114       -1.8780242418       -1.6130952396
 C         -4.0558805204        0.3648812732       -0.8816272518
 C         -5.2147566865        0.9269355621       -0.3811413270
 C         -5.3798430239        2.2999256536       -0.4567553011
 C         -4.3923761388        3.0807360104       -1.0393992747
 C         -3.2362118112        2.4990775566       -1.5362473886
 C         -3.0575790742        1.1258484838       -1.4546803840
 H         -2.1576509137        0.6414851381       -1.8004886990
 H         -2.4660411240        3.1064854192       -1.9849577524
 H         -4.5223467307        4.1496735776       -1.1063873282
 H         -6.2757179196        2.7564801523       -0.0677851518
 H         -5.9631546885        0.2788858365        0.0436678036
 H         -4.1820283748       -2.6069522543        1.0366588785
 H         -2.3622008167       -3.8653442615        1.7785318035
 H         -0.0462218833       -3.8538511733        2.6374421413
 H          1.2534388908       -1.7564643436        2.6468313418
 H          1.1033192711        0.6399327408        2.7955741085
 C         -0.3007211172        1.9488375778        1.9145503174
 C          0.3611523818        3.2785431429        1.7093286815
 C         -0.6361769027        2.7746841075        0.7118728892
 H         -1.6085161566        3.2436054672        0.6772608601
 H         -0.2815202615        2.4368064854       -0.2482709990
 H          0.0814902979        4.1000874043        2.3511398764
 H          1.4059469636        3.2733864816        1.4338938890
 H         -1.0554266380        1.9014521231        2.6938336253
