  62
        -98.94561764
 C         -1.5926973586       -1.4722134571       -0.0964609622
 C         -2.7509670937       -0.8537230858        0.4355079143
 C         -3.1596737402        0.4073336235       -0.1920763672
 C         -2.4242761270        0.9212802843       -1.1934837611
 C         -2.6895384783        2.2115220020       -1.9199660115
 C         -2.1461315943        3.4465041704       -1.1877164018
 C         -2.9505156205        3.8769208826        0.0394911541
 H         -2.6144818511        4.8812162106        0.3055617620
 H         -4.0078988754        3.9436652483       -0.2207374812
 C         -2.7726548150        2.9640622570        1.2609447877
 H         -1.8629442552        2.3690899466        1.1438215863
 H         -2.6271781638        3.5784149193        2.1533174932
 C         -3.9557713254        2.0368996030        1.5429565318
 H         -3.6942858337        1.4026227561        2.3940624378
 H         -4.8276977881        2.6333444901        1.8230721595
 C         -4.3479492386        1.1237294087        0.3744720778
 H         -4.8478910123        1.7022460300       -0.4024457758
 H         -5.0425460841        0.3686132818        0.7518731951
 H         -1.1136304290        3.2527688385       -0.8842547287
 H         -2.1368070800        4.2742429654       -1.9010329722
 H         -3.7604177963        2.3283111608       -2.0893122711
 H         -2.1899263108        2.1346823874       -2.8882100179
 O         -1.3218961151        0.2972094260       -1.6817465450
 C         -0.8568891673       -0.8908683261       -1.1297703901
 O          0.1930105985       -1.3074411834       -1.6526133226
 O         -3.4083761725       -1.3309580688        1.4001106358
 C         -1.0599438088       -2.7101745616        0.6035854280
 C          0.4111269273       -2.5162953654        0.8816736533
 C          1.3915469181       -3.4588587885        0.6036258119
 C          2.7241022767       -3.1794223881        0.8570240936
 C          3.1085811627       -1.9530851973        1.3661380523
 C          2.1329768428       -1.0052646830        1.6531269220
 C          0.7996009621       -1.3041165160        1.4405292787
 H          0.0545935184       -0.5565922552        1.6725216936
 N          2.4673159688        0.2693381166        2.1574985737
 S          2.0164017314        1.6039396483        1.2518189624
 O          2.6568740764        2.7211294180        1.9161055993
 O          0.5830510005        1.6740208467        1.1363446645
 C          2.7689387216        1.3767769571       -0.3491262495
 C          4.1475173822        1.3035228300       -0.4161395590
 C          4.7501838569        1.1086173338       -1.6471498772
 C          3.9677601953        0.9908098540       -2.7865680860
 C          2.5877265589        1.0774842262       -2.7039788663
 C          1.9798151199        1.2727697935       -1.4736707469
 H          0.9088858900        1.3331251353       -1.3729681120
 H          1.9740364215        0.9835777766       -3.5853542354
 H          4.4360809923        0.8335019545       -3.7454238449
 H          5.8244012036        1.0472278815       -1.7158891693
 H          4.7256643387        1.4181793910        0.4867382808
 H          3.4383562990        0.3587558760        2.4235283534
 H          4.1501960372       -1.7272257260        1.5377568455
 H          3.4756516637       -3.9210891296        0.6332800299
 H          1.1182308401       -4.4057771808        0.1680402086
 H         -1.5893043341       -2.7227230695        1.5720301196
 C         -1.3855497246       -4.0275828251       -0.0837932880
 C         -2.5129063790       -4.1301586510       -1.0661867237
 C         -1.0966512457       -4.2596834290       -1.5357328203
 H         -0.7469260685       -5.2357924364       -1.8386820218
 H         -0.6606835603       -3.4438998996       -2.0899398421
 H         -3.1339026738       -5.0132414079       -1.0425782106
 H         -3.0507346355       -3.2243752951       -1.3067950738
 H         -1.2553604989       -4.8765627142        0.5803633292
