  62
        -98.94329090
 C         -0.9929858347       -1.7168750541       -0.2324227727
 C         -2.2786118041       -1.6117839152        0.3397552029
 C         -3.1191697739       -0.4940290541       -0.1261940760
 C         -2.6137269877        0.3651219157       -1.0286788208
 C         -3.2410243789        1.6289710688       -1.5508560134
 C         -2.8553355945        2.8287038007       -0.6655756266
 C         -3.8248724468        3.1176521650        0.4778517699
 H         -3.4015936203        3.9400778106        1.0594012548
 H         -4.7806513203        3.4553027740        0.0705450369
 C         -4.0703403770        1.9333733032        1.4149705114
 H         -3.1188440754        1.4374289512        1.6205507958
 H         -4.4399766394        2.3252531265        2.3648222685
 C         -5.0859657988        0.9235429227        0.8612124167
 H         -5.6008053041        1.3635709270        0.0074168096
 H         -5.8502264727        0.7283374360        1.6167677884
 C         -4.5002746432       -0.4381008430        0.4697476201
 H         -4.4415661527       -1.0735057325        1.3595829335
 H         -5.1908450870       -0.9351935609       -0.2209555326
 H         -2.7881580641        3.7225975553       -1.2898581689
 H         -1.8635523701        2.6438605019       -0.2419213474
 H         -4.3199046767        1.5275292590       -1.6234713898
 H         -2.8362201885        1.7857649596       -2.5528041381
 O         -1.3726273759        0.2165414085       -1.5694359088
 C         -0.5319625166       -0.8142896895       -1.1907110560
 O          0.5720996695       -0.8223827255       -1.7662856134
 O         -2.7052827971       -2.4128860048        1.2182112101
 C         -0.0514691967       -2.8018246774        0.2493792667
 C          1.2431714795       -2.2095380273        0.7538601342
 C          2.4421597440       -2.9138581886        0.7325940841
 C          3.6059989049       -2.3359918817        1.2083853126
 C          3.6100211598       -1.0377698307        1.6860506719
 C          2.4174496673       -0.3251958881        1.7094439903
 C          1.2465234748       -0.9240681990        1.2762608275
 H          0.3296139486       -0.3563679937        1.3237812954
 N          2.3627138819        1.0068424516        2.1610765525
 S          1.5654904633        2.1369782129        1.2211253060
 O          2.0317172512        3.4109655207        1.7340724793
 O          0.1396396307        1.9332035025        1.2819407375
 C          2.1560119035        1.9464049467       -0.4518709414
 C          3.4885353150        1.6621720579       -0.6752761614
 C          3.9433635873        1.5616558057       -1.9793467894
 C          3.0666824760        1.7570845424       -3.0347817355
 C          1.7360892823        2.0554318358       -2.7946900756
 C          1.2752007761        2.1502240353       -1.4920441341
 H          0.2418393776        2.3610984818       -1.2693592575
 H          1.0496020995        2.2018280988       -3.6131087518
 H          3.4211865197        1.6736251496       -4.0501585559
 H          4.9788869501        1.3278207116       -2.1680067860
 H          4.1568071664        1.5197986779        0.1579386368
 H          3.2422131066        1.3784150273        2.4907639381
 H          4.5224224863       -0.5814881614        2.0391763029
 H          4.5269324865       -2.8983740130        1.1911466507
 H          2.4631747160       -3.9177471995        0.3406388852
 H         -0.5649144646       -3.2859587407        1.0944760899
 C          0.1691862356       -3.8344056153       -0.8399153576
 C          0.3223207562       -5.2862243523       -0.4996836906
 C         -0.9343694857       -4.7985909596       -1.1533583270
 H         -1.1175360511       -5.0566240597       -2.1855380494
 H         -1.8311240143       -4.7315138815       -0.5545564414
 H          1.0033460458       -5.8838953330       -1.0867520641
 H          0.2703212146       -5.5663847692        0.5417373519
 H          0.7399382390       -3.4385291750       -1.6724942303
