  62
        -98.93521829
 C          2.3740992043        1.4070791742       -0.0454846353
 C          3.1475577991        0.7619978183        0.9512927080
 C          4.0549029943       -0.3187883932        0.5212420596
 C          4.1013130276       -0.6375475937       -0.7852104179
 C          4.9131996644       -1.7108667467       -1.4608097403
 C          4.3412568512       -3.1189956585       -1.2346532333
 C          3.9219162724       -3.4179382461        0.2021849408
 H          3.4483017462       -4.4034040695        0.2108562042
 H          3.1636275044       -2.6960565827        0.5125367663
 C          5.0586638229       -3.4356473295        1.2217028311
 H          5.8005191341       -4.1771149141        0.9170498844
 H          4.6326487314       -3.7636504276        2.1732933782
 C          5.7702108939       -2.1010267790        1.4566802979
 H          6.4769530264       -1.8852909230        0.6599021070
 H          6.3579176100       -2.2037411461        2.3734322666
 C          4.8378634287       -0.9124231115        1.6672945957
 H          5.4187478711       -0.0819050303        2.0860952514
 H          4.1013970376       -1.1647618405        2.4388666231
 H          5.0848778303       -3.8490889829       -1.5587927084
 H          3.4580516536       -3.2324500292       -1.8686131388
 H          5.9479019893       -1.6577112295       -1.1354848586
 H          4.8887914394       -1.4940595663       -2.5311503123
 O          3.3323840134        0.0019582017       -1.7108249918
 C          2.4531802695        1.0208193177       -1.3828137584
 O          1.8282387050        1.4729493968       -2.3618269867
 O          3.0898498683        1.0814976017        2.1695810965
 C          1.4589333965        2.5270237141        0.4196268188
 C          0.0664133011        2.0106917830        0.6768874504
 C         -0.5604120279        2.2114951218        1.9006545026
 C         -1.8311258522        1.7126790247        2.1308173585
 C         -2.5014861863        1.0072240478        1.1476830990
 C         -1.8807140069        0.7949106009       -0.0765101954
 C         -0.6080421660        1.2964812581       -0.3045088451
 H         -0.1292121603        1.1286595728       -1.2585186871
 N         -2.5542007818        0.0796205477       -1.0856192514
 S         -3.0974058281       -1.4616524089       -0.6891231684
 O         -2.2879510157       -2.0542760461        0.3514430528
 O         -3.1637546431       -2.1808373626       -1.9425505193
 C         -4.7517234313       -1.1794674724       -0.0940763639
 C         -5.6434472979       -0.5423743725       -0.9348411747
 C         -6.9356269129       -0.3137336050       -0.4897967944
 C         -7.3126269390       -0.7259345631        0.7798742881
 C         -6.4065452309       -1.3675428340        1.6103447465
 C         -5.1118478514       -1.5986714512        1.1715987725
 H         -4.3709114188       -2.0880490278        1.7836014911
 H         -6.7015277330       -1.6875646396        2.5967703395
 H         -8.3188039799       -0.5462045330        1.1241710149
 H         -7.6429749258        0.1847976161       -1.1327578474
 H         -5.3101278042       -0.2421835100       -1.9142562825
 H         -2.0408301774        0.0528054264       -1.9559058207
 H         -3.4903207120        0.6152143231        1.3210503542
 H         -2.3050439263        1.8744030573        3.0868209270
 H         -0.0373739486        2.7470320227        2.6793326679
 H          1.8779014464        2.8393045679        1.3892288728
 C          1.4889727870        3.7409587205       -0.4996824773
 C          0.3272186176        4.1879688842       -1.3306891657
 C          0.7297336848        4.9796659096       -0.1252137361
 H          1.2020531251        5.9398408880       -0.2661033112
 H          0.0900817136        4.9223561496        0.7426088389
 H          0.5409919364        4.5838424403       -2.3118452689
 H         -0.5871504975        3.6180793502       -1.2840325314
 H          2.4712799180        3.8870361491       -0.9380507551
