  62
        -98.93661471
 C          1.2322983464        1.7114244385        0.4720221305
 C          1.4758637780        0.4149145575        0.9913593072
 C          2.7284407787       -0.2274017949        0.5747835987
 C          3.5757941366        0.4335959709       -0.2344438819
 C          4.9358346808       -0.0280791866       -0.6887352564
 C          4.9747884959       -1.2586586531       -1.6151953169
 C          5.1602457640       -2.5945045058       -0.8851855606
 H          5.8343203309       -3.2230032452       -1.4707826313
 H          5.6562392228       -2.4070190609        0.0679477722
 C          3.8830238093       -3.4054895465       -0.6479224074
 H          4.1118166703       -4.1846183132        0.0821440286
 H          3.5973668032       -3.8997843494       -1.5790875795
 C          2.6723437801       -2.6091161672       -0.1622527417
 H          2.2587505547       -2.0276004131       -0.9897483078
 H          1.8943343673       -3.3132129122        0.1346526007
 C          2.9620332808       -1.6459200129        1.0051110667
 H          2.2720892897       -1.8392728250        1.8286517685
 H          3.9804982788       -1.7747454260        1.3687258199
 H          5.8227853284       -1.1183959538       -2.2876713887
 H          4.0757686880       -1.2800771248       -2.2306099188
 H          5.3687362949        0.8251472799       -1.2151209066
 H          5.5498634454       -0.2218692426        0.1938387277
 O          3.3007371122        1.6757402860       -0.7167166524
 C          2.1118473931        2.3267846447       -0.4185485508
 O          1.9832853561        3.4248422626       -0.9924017777
 H         -1.4504511101        0.1972220505        0.2548122701
 C         -1.6497975176        0.9797029583       -0.4622556448
 C         -1.0311028790        2.2148330519       -0.3091367406
 C         -1.2757276795        3.2076460443       -1.2493529407
 C         -2.1240690852        2.9619453760       -2.3148905269
 C         -2.7557105970        1.7389888232       -2.4518502243
 C         -2.5158114146        0.7384582787       -1.5161351333
 N         -3.1302882794       -0.5184816755       -1.6233660158
 S         -3.7370702702       -1.2528686901       -0.2425284577
 O         -4.7778897727       -2.1316452719       -0.7358818668
 O         -4.1482040290       -0.2726180825        0.7353165249
 C         -2.4102460239       -2.2566402359        0.3868397181
 C         -1.8710790758       -3.2187062245       -0.4445790522
 C         -0.8806389209       -4.0500015970        0.0505802003
 C         -0.4496266651       -3.9067309417        1.3616128164
 C         -0.9974003630       -2.9333587038        2.1810445200
 C         -1.9903463278       -2.1004185517        1.6916036075
 H         -2.4391154029       -1.3291863606        2.2973694032
 H         -0.6533558359       -2.8118625758        3.1952574688
 H          0.3174923549       -4.5591543134        1.7498248365
 H         -0.4475655301       -4.8064363477       -0.5846524882
 H         -2.2389066871       -3.3039478425       -1.4536901377
 H         -3.7713239206       -0.6094304146       -2.3984139270
 H         -3.4272069721        1.5557261129       -3.2772810352
 H         -2.3037787207        3.7378952458       -3.0438456061
 H         -0.7864506988        4.1632161373       -1.1560714916
 C         -0.0781268780        2.3842980183        0.8486308712
 H         -0.4739248157        1.7956200334        1.6881178186
 C          0.0916262486        3.8170663969        1.3025918026
 C         -1.0407452012        4.4885591265        2.0187662049
 C          0.2009487857        4.1109621906        2.7675965251
 H          0.8701598926        4.8961490362        3.0859779520
 H          0.1503146363        3.2765550984        3.4518588264
 H         -1.9345874371        3.9069725502        2.1900964384
 H         -1.2273699380        5.5337288296        1.8250973647
 H          0.6953833290        4.4159513423        0.6328672989
 O          0.6873421160       -0.1739156874        1.7775037356
