  62
        -98.94278725
 C          2.0579750472        0.7785635613        0.5772735408
 C          2.8337269501       -0.2818701372        1.1166396659
 C          4.2596596897       -0.2879075000        0.7761231737
 C          4.7656482418        0.7014506460        0.0182125276
 C          6.2043950707        0.8590105148       -0.3924314155
 C          6.5906033588        0.0458042569       -1.6353900484
 C          6.6990954068       -1.4637199020       -1.4164979076
 H          7.1843117152       -1.8816599935       -2.3008005760
 H          7.3505938420       -1.6604331161       -0.5644791119
 C          5.3527927249       -2.1725321044       -1.2119238287
 H          4.5428239759       -1.5246580197       -1.5551476148
 H          5.3199674144       -3.0761853942       -1.8247791637
 C          5.0695880430       -2.5943325379        0.2300834615
 H          5.7974717469       -3.3467712098        0.5419197049
 H          4.0771532265       -3.0514929855        0.2643320059
 C          5.0945505105       -1.4417795852        1.2426667139
 H          4.6693084494       -1.8015877737        2.1829004239
 H          6.1205835396       -1.1212030597        1.4227235867
 H          5.8632879037        0.2479852374       -2.4249761649
 H          7.5616770622        0.4125428777       -1.9758025954
 H          6.3495136658        1.9182587627       -0.6151763869
 H          6.8546913620        0.5862876964        0.4391725705
 O          3.9986203879        1.7137130390       -0.4593417281
 C          2.6312769777        1.7685080789       -0.2220042603
 O          2.0755817960        2.7368376306       -0.7765576935
 H         -1.3672589730       -1.0597117531        1.2436616753
 C         -1.2533457395       -0.7607117327        0.2129009143
 C         -0.2832685235        0.1646447357       -0.1449749614
 C         -0.1665407250        0.5255370458       -1.4831264639
 C         -0.9920855253       -0.0413953783       -2.4370437069
 C         -1.9697597830       -0.9512227269       -2.0734676137
 C         -2.1058242950       -1.3053755823       -0.7374321457
 N         -3.1166531773       -2.1938544560       -0.3148778765
 S         -4.2656163606       -1.5633698075        0.7320192298
 O         -3.6418513524       -1.1995397568        1.9771193730
 O         -5.3088810929       -2.5614373686        0.7986090714
 C         -4.8639579308       -0.1113739870       -0.1154871430
 C         -5.9905527534       -0.2202417965       -0.9073980423
 C         -6.4084302160        0.8820995872       -1.6352726126
 C         -5.6871732910        2.0647248224       -1.5703790194
 C         -4.5564058455        2.1565799398       -0.7734682821
 C         -4.1372699951        1.0603561348       -0.0360523307
 H         -3.2634567599        1.1014962226        0.5933882049
 H         -3.9922038010        3.0742040512       -0.7254339760
 H         -6.0073620900        2.9208279331       -2.1429969783
 H         -7.2893643444        0.8147621932       -2.2531394272
 H         -6.5202053272       -1.1590959617       -0.9272860788
 H         -3.5841784046       -2.6658795677       -1.0768713588
 H         -2.6218855971       -1.3838406685       -2.8172401812
 H         -0.8823295709        0.2396897283       -3.4733534888
 H          0.5737707439        1.2571119659       -1.7674024015
 C          0.5822085235        0.7800435466        0.9294198358
 H          0.5004406430        0.1400345243        1.8191778285
 C          0.0409731371        2.1533195457        1.2834867814
 C         -1.1655610488        2.2564279460        2.1661850267
 C          0.1822566042        2.6567324085        2.6867804972
 H          0.3884004302        3.7053412695        2.8394918600
 H          0.6646752841        2.0084093890        3.4039935698
 H         -1.8856835592        3.0354196490        1.9655764909
 H         -1.6018771095        1.3403023260        2.5389787498
 H          0.1457793836        2.8726638789        0.4815110165
 O          2.3533495013       -1.1798032756        1.8599812818
