  62
        -98.94520264
 C          1.5725515702        0.9738037724        0.2956559963
 C          2.8913709375        1.1556494074        0.7803317188
 C          3.9753086864        0.7858755865       -0.1383467331
 C          3.6676836604        0.3034656861       -1.3561980995
 C          4.6697047649       -0.1713623626       -2.3675720171
 C          4.9480176824       -1.6728790154       -2.2106980898
 C          5.2560400343       -2.0978051905       -0.7747914471
 H          4.3622228814       -1.9566497397       -0.1622912113
 H          5.4660345728       -3.1695375788       -0.7913639901
 C          6.4356196484       -1.3551155329       -0.1315130022
 H          7.0682763605       -2.0820781680        0.3820870820
 H          7.0441324141       -0.8860594239       -0.9054787132
 C          6.0340193614       -0.3034396695        0.9042444483
 H          5.3479880363       -0.7479440550        1.6297325336
 H          6.9331288257       -0.0005957558        1.4474146215
 C          5.3864455079        0.9696518717        0.3451335033
 H          5.3317203177        1.6986333425        1.1588776319
 H          6.0139570888        1.3842668406       -0.4462499452
 H          4.0681268175       -2.2254358765       -2.5490845179
 H          5.7856318498       -1.9383765582       -2.8583549361
 H          4.2652444912        0.0111759600       -3.3645680058
 H          5.5922707783        0.3939990618       -2.2508565304
 O          2.3914308002        0.1497614352       -1.7905935641
 C          1.3109362352        0.4670308540       -0.9777377051
 O          0.2022668252        0.2677949601       -1.5081051336
 O          3.1491733777        1.6064710174        1.9287745907
 C          0.4140931526        1.3065808649        1.2218852425
 C         -0.2539142419        0.0166802521        1.6312557087
 C          0.4544796739       -0.8850035501        2.4229545669
 C         -0.1110247645       -2.0867265873        2.8011256744
 C         -1.3881700092       -2.4230496236        2.3835123303
 C         -2.1004202913       -1.5351646046        1.5889652277
 C         -1.5373532062       -0.3168872087        1.2322015783
 H         -2.1076001191        0.3659631490        0.6288771471
 N         -3.4056493416       -1.8295814867        1.1520742524
 S         -3.7052043603       -1.7687939651       -0.5045123073
 O         -4.9288750558       -2.5279612189       -0.6682643651
 O         -2.5678798826       -2.2404234016       -1.2589813175
 C         -4.0494870052       -0.0566522552       -0.8432835317
 C         -5.1857531956        0.4931063204       -0.2820951435
 C         -5.4761102419        1.8251498269       -0.5280581741
 C         -4.6317024722        2.5780215267       -1.3306542979
 C         -3.4981065688        2.0081453282       -1.8898788704
 C         -3.1980817367        0.6762303224       -1.6465464738
 H         -2.3058941503        0.2094614664       -2.0358900152
 H         -2.8369113004        2.5935323499       -2.5095016477
 H         -4.8553984137        3.6160600842       -1.5213109593
 H         -6.3554356038        2.2728067445       -0.0937395748
 H         -5.8166751387       -0.1307219878        0.3287664381
 H         -3.7781745373       -2.6892939935        1.5318722581
 H         -1.8280187710       -3.3671733737        2.6688317630
 H          0.4473808049       -2.7737076163        3.4194167801
 H          1.4566938528       -0.6270260558        2.7370359338
 H          0.8779368236        1.7453709796        2.1169617338
 C         -0.5282968148        2.3190895904        0.6085913704
 C         -1.4986233706        3.0556899036        1.4815604139
 C         -0.3274893199        3.7771115853        0.8871064599
 H         -0.5046398328        4.4817714925        0.0888036988
 H          0.4882503317        4.0534583535        1.5391272214
 H         -2.4839697129        3.2623340935        1.0920645406
 H         -1.4776392246        2.8417429960        2.5393219459
 H         -0.8524247170        2.0455669659       -0.3879603885
