  62
        -98.94038334
 C         -1.8969558814       -1.1004455701       -0.1247574599
 C         -2.3160517815        0.1485843303       -0.6458591287
 C         -3.7716722415        0.3686652803       -0.6863145383
 C         -4.6028846214       -0.5926185702       -0.2471608590
 C         -6.0979461314       -0.4771282603       -0.1889928287
 C         -6.5597522312        0.0697379185        1.1690605019
 C         -5.8115370312        1.3257105082        1.6159912728
 H         -4.7657631112        1.0711037381        1.8029865024
 H         -6.2417350111        1.6382136773        2.5699630331
 C         -5.8766244014        2.4917551090        0.6197464138
 H         -6.0872326414        3.4111507785        1.1701273746
 H         -6.6998991415        2.3370144996       -0.0786576062
 C         -4.5850376516        2.7292128198       -0.1652427462
 H         -3.7404773915        2.7921281392        0.5258552437
 H         -4.6666486317        3.6958202702       -0.6696696854
 C         -4.2521578417        1.6823010907       -1.2358116171
 H         -3.4273058118        2.0751974613       -1.8378446569
 H         -5.1147768418        1.5358505512       -1.8892552271
 H         -6.4086080111       -0.7055728321        1.9236792712
 H         -7.6286836512        0.2824013085        1.1099507622
 H         -6.5255607914       -1.4705071902       -0.3351977395
 H         -6.4381192316        0.1754238404       -0.9907286981
 O         -4.1636040713       -1.7767866806        0.2505348499
 C         -2.8091472512       -2.0502372506        0.3437859595
 O         -2.5452577611       -3.1544814910        0.8592987285
 O         -1.5330510916        1.0425859907       -1.0580442481
 C         -0.4268500213       -1.4647614101        0.0003772996
 C          0.3533215687       -0.2938775006        0.5456096405
 C          0.0410958789        0.1771681983        1.8188927209
 C          0.7107565489        1.2579146779        2.3572437218
 C          1.7221330487        1.8801371986        1.6457966221
 C          2.0441329186        1.4162706997        0.3769905317
 C          1.3630158386        0.3342079701       -0.1649476991
 H          1.6100108984        0.0222570010       -1.1652159294
 N          3.0588555284        2.0346729504       -0.3734570779
 S          4.2187388384        1.0995039311       -1.1293851489
 O          5.2915720583        2.0215346014       -1.4304937283
 O          3.6515869982        0.3941621720       -2.2492080694
 C          4.7407373986       -0.0505589999        0.1299407700
 C          4.1795283387       -1.3100803200        0.1836470390
 C          4.5398803989       -2.1608450809        1.2167634383
 C          5.4514706190       -1.7399500316        2.1725218785
 C          6.0120507390       -0.4735280815        2.1014799395
 C          5.6505367087        0.3830047493        1.0747152303
 H          6.0691003887        1.3716567494        0.9777469410
 H          6.7253972790       -0.1518791221        2.8430665996
 H          5.7280241592       -2.4049818323        2.9753655179
 H          4.1049871090       -3.1461000710        1.2722261275
 H          3.4802379386       -1.6034396294       -0.5819580111
 H          3.4830987785        2.8310619100        0.0793525227
 H          2.2452386788        2.7276948783        2.0621720228
 H          0.4485054490        1.6178945171        3.3407694121
 H         -0.7500169410       -0.3092188822        2.3741736706
 H         -0.3985141312       -2.2679374808        0.7555066689
 C          0.1766308685       -2.0442885790       -1.2701484010
 C         -0.6615276816       -2.7834934282       -2.2687753015
 C         -0.0759421817       -1.4509040279       -2.6220573604
 H          0.7438593082       -1.4131837072       -3.3255111105
 H         -0.7320405718       -0.5965534279       -2.6763549196
 H         -0.2479537816       -3.6680180478       -2.7295271623
 H         -1.7247173216       -2.8430500084       -2.0861000814
 H          1.1714626686       -2.4451450991       -1.0986413215
