  62
        -98.94257102
 C          1.6911937910        1.4007031005        0.1228681815
 C          2.8231961386        0.8576745726        0.7799673688
 C          3.4241384092       -0.3334850233        0.1643043001
 C          2.8627576769       -0.8536898283       -0.9421118263
 C          3.3195829077       -2.1096552230       -1.6257629985
 C          2.5923324136       -3.3428042901       -1.0702164667
 C          2.5808074327       -3.4184264855        0.4564719150
 H          1.9946460629       -2.5850786462        0.8520668896
 H          2.0583978923       -4.3368953082        0.7339018133
 C          3.9738186676       -3.4069235138        1.1017753938
 H          4.0087683797       -4.1778879679        1.8744898515
 H          4.7287466857       -3.6612093908        0.3569134352
 C          4.3514177472       -2.0851711829        1.7731232669
 H          5.2513066073       -2.2525007531        2.3710209460
 H          3.5567116138       -1.7818547417        2.4599114712
 C          4.6423562087       -0.9148251777        0.8250274252
 H          5.0758228391       -0.1066404021        1.4216537250
 H          5.3767526631       -1.2216479718        0.0774653146
 H          3.0693314186       -4.2371815851       -1.4749649658
 H          1.5564069418       -3.3265842828       -1.4165996222
 H          4.3938771205       -2.2198768621       -1.4909701428
 H          3.1050884444       -2.0204768336       -2.6919625046
 O          1.7690033235       -0.3167784214       -1.5365277504
 C          1.1457987254        0.8153428542       -1.0224739733
 O          0.1457392354        1.1741823085       -1.6658159446
 O          3.3011708596        1.3381561218        1.8431921147
 C          1.0004638349        2.5903775230        0.7674308971
 C         -0.4830750223        2.3232143951        0.8350667402
 C         -1.4531566833        3.1738517013        0.3243304543
 C         -2.7924182877        2.8263093355        0.3843990761
 C         -3.1925024252        1.6279649612        0.9447315760
 C         -2.2288382725        0.7699813879        1.4597631381
 C         -0.8923213556        1.1281810943        1.4156951365
 H         -0.1440722958        0.4539222836        1.8158840571
 N         -2.6188317762       -0.4686350353        2.0070921771
 S         -3.5800645359       -1.4439389793        1.0388614657
 O         -4.9442069022       -0.9836227954        1.1142327077
 O         -3.3421098556       -2.7906680731        1.5106519832
 C         -2.9613214404       -1.2438383245       -0.6205934431
 C         -1.7298254899       -1.7861289642       -0.9296792160
 C         -1.2239424024       -1.6135005046       -2.2064232628
 C         -1.9491051346       -0.8966820783       -3.1445912636
 C         -3.1824135555       -0.3572345603       -2.8184579255
 C         -3.6967285275       -0.5305840846       -1.5439721910
 H         -4.6530770958       -0.1300212764       -1.2500545179
 H         -3.7407960360        0.2040701729       -3.5502005756
 H         -1.5425492245       -0.7527078240       -4.1329507191
 H         -0.2575712595       -2.0172542231       -2.4631059250
 H         -1.1907356252       -2.3383349460       -0.1748533516
 H         -1.8439647427       -1.0046518325        2.3708209157
 H         -4.2292734862        1.3357004204        0.9855263272
 H         -3.5352381372        3.4952302082       -0.0225116455
 H         -1.1618592675        4.0982968051       -0.1458686595
 H          1.3902587158        2.6058558058        1.7996362436
 C          1.3512746119        3.9381792548        0.1566526897
 C          2.6381464407        4.1388997891       -0.5851297030
 C          1.3351774715        4.1751218531       -1.3227768942
 H          0.9801520136        5.1292797683       -1.6840235519
 H          1.0768373387        3.3425543639       -1.9573420066
 H          3.1755710822        5.0638231497       -0.4378598949
 H          3.2788839311        3.2793689289       -0.7193158469
 H          1.0298815456        4.7630880812        0.7852849367
