  62
        -98.93928956
 C         -2.7872467246       -0.8361997994        0.2178627012
 C         -2.4617442178       -0.1155966002       -0.9565972799
 C         -2.7583414653        1.3271939015       -0.9370543985
 C         -3.3528019877        1.8549909236        0.1487064150
 C         -3.5927725988        3.3170801687        0.3916757811
 C         -2.3171299673        4.0177628026        0.9175720703
 C         -0.9946134524        3.3954178389        0.4600561921
 H         -0.1899137983        3.8021466880        1.0798080976
 H         -1.0142212559        2.3192874986        0.6516202675
 C         -0.6145184039        3.6405129680       -1.0029854641
 H          0.1957723236        2.9499123291       -1.2538380410
 H         -0.2224709074        4.6574073850       -1.0917358250
 C         -1.7424041585        3.4945652191       -2.0224250444
 H         -1.3327202471        3.7553381044       -3.0025997616
 H         -2.5203749146        4.2227626317       -1.8033918137
 C         -2.3350579245        2.0902915386       -2.1647751121
 H         -3.1966326759        2.1471548360       -2.8409237493
 H         -1.5968627955        1.4452390375       -2.6529928900
 H         -2.3410395699        5.0689872313        0.6292488761
 H         -2.3341649630        3.9675281277        2.0082725629
 H         -3.9511775200        3.7768375797       -0.5255412574
 H         -4.3775177890        3.4033281413        1.1450798775
 O         -3.7200933937        1.1113558837        1.2271245560
 C         -3.4103116442       -0.2360107918        1.3093636102
 O         -3.7289164956       -0.7759038254        2.3891314693
 O         -1.9173337523       -0.6447081928       -1.9599853296
 C         -2.3298734276       -2.2779088188        0.3587646631
 C         -0.8265564810       -2.3014674617        0.2028828982
 C         -0.1449982120       -3.1865366578       -0.6205671035
 C          1.2292627512       -3.0920313230       -0.7649050241
 C          1.9511513203       -2.1195918482       -0.0974799355
 C          1.2807416939       -1.2400964870        0.7427157354
 C         -0.0906067820       -1.3479807015        0.8968644085
 H         -0.6089950083       -0.6534063059        1.5491461075
 N          2.0042316730       -0.2344042124        1.4212790168
 S          2.7039196735        0.9389163534        0.4314714040
 O          2.8400047655        2.1106013744        1.2695202811
 O          1.9678652324        1.1076542523       -0.7992078215
 C          4.3183314106        0.2698179299        0.0945254935
 C          5.1718087902        0.0651064510        1.1610703793
 C          6.4288282954       -0.4653084322        0.9192712194
 C          6.8089330936       -0.7783989208       -0.3775724810
 C          5.9412460003       -0.5640667076       -1.4376120898
 C          4.6816558545       -0.0346001149       -1.2023573512
 H          3.9699529493        0.1434444892       -1.9927822118
 H          6.2383594920       -0.8081356990       -2.4448937613
 H          7.7875648311       -1.1919207648       -0.5633936249
 H          7.1065233805       -0.6333574511        1.7406599235
 H          4.8366031942        0.3270654544        2.1507004927
 H          1.4526087721        0.2286134096        2.1307949189
 H          3.0183689452       -2.0325766324       -0.2215946978
 H          1.7440896101       -3.7805695225       -1.4173629356
 H         -0.6920486267       -3.9386698847       -1.1648860464
 H         -2.5794705958       -2.5808931882        1.3862252087
 C         -3.0586027469       -3.1829892729       -0.6102935129
 C         -3.2557600961       -4.6320559241       -0.2830921324
 C         -4.4194719625       -3.6891683530       -0.2411937533
 H         -5.1704121400       -3.7581328330       -1.0137118130
 H         -4.8111166970       -3.3977826555        0.7227609564
 H         -3.2115497707       -5.3524854842       -1.0857685146
 H         -2.8617800650       -4.9909150872        0.6557048240
 H         -2.8896783481       -2.9056663633       -1.6441694096
