  62
        -98.93777401
 C         -1.2045584608       -1.6743504988       -0.0762629795
 C         -1.9171350503       -0.8766635180        0.8480103900
 C         -2.9708224895       -0.0000389773        0.3015169795
 C         -3.2106643392       -0.0284041075       -1.0225834705
 C         -4.1712633683        0.8281876731       -1.8020690010
 C         -3.6327084871        2.2535955526       -2.0209910413
 C         -2.9504162869        2.8810821924       -0.8067770113
 H         -2.1410541375        2.2285119018       -0.4723338809
 H         -2.4951267960        3.8209707019       -1.1310039415
 C         -3.8749649269        3.1906022735        0.3684754383
 H         -3.2750756467        3.6835233032        1.1378188483
 H         -4.6381498763        3.9010178240        0.0424543779
 C         -4.5766739980        1.9887992842        1.0030086885
 H         -5.3976799782        1.6481225147        0.3778194384
 H         -5.0239692480        2.3318694949        1.9406506083
 C         -3.6622624491        0.8211049636        1.3628853391
 H         -4.2376748798        0.1071276043        1.9647875992
 H         -2.8649678290        1.1801877032        2.0221098492
 H         -4.4572767065        2.8894942431       -2.3471453617
 H         -2.8985257569        2.2146133517       -2.8299006111
 H         -4.3027556785        0.3528322829       -2.7765377809
 H         -5.1388651184        0.8471841840       -1.3096911813
 O         -2.5223733197       -0.8421695783       -1.8741019401
 C         -1.5015462604       -1.6705210490       -1.4386223596
 O         -0.9487454907       -2.3255719097       -2.3425985093
 O         -1.6725690607       -0.8790519678        2.0835126401
 C         -0.0595984416       -2.5204705696        0.4360465410
 C          1.2749922589       -2.0671349109       -0.1094949788
 C          2.4058347382       -2.8732488918       -0.0170681183
 C          3.6382654087       -2.4214254529       -0.4550795381
 C          3.7762415999       -1.1577143132       -1.0032855885
 C          2.6532475106       -0.3535445523       -1.1150303390
 C          1.4227820301       -0.8019548011       -0.6585339492
 H          0.5615078306       -0.1500539505       -0.7373969296
 N          2.7862585718        0.9552722674       -1.6493395794
 S          3.3065610824        2.0687491974       -0.5071553596
 O          3.1804760736        3.3688142273       -1.1256690100
 O          4.6258185020        1.6868774464       -0.0743399491
 C          2.1444264219        1.9052596187        0.8351188302
 C          0.9861981525        2.6558653496        0.8102252197
 C          0.0366773321        2.4554155907        1.7990490995
 C          0.2520179011        1.5007897508        2.7808927699
 C          1.4178161705        0.7511532599        2.7872800904
 C          2.3744081309        0.9503412088        1.8053949405
 H          3.2928075105        0.3863461581        1.7755326609
 H          1.5745475697        0.0030052400        3.5472996206
 H         -0.4965515292        1.3256298217        3.5369781697
 H         -0.8719316974        3.0366515015        1.7942588391
 H          0.8535812633        3.3866019795        0.0276875694
 H          1.9252784421        1.2966097680       -2.0549971797
 H          4.7295455003       -0.7802044140       -1.3346140384
 H          4.5035490382       -3.0604415636       -0.3683557577
 H          2.3177989573       -3.8608774516        0.4062176220
 H         -0.0440394317       -2.3528587793        1.5243906909
 C         -0.3107199227       -3.9947161595        0.1787039514
 C          0.0699342162       -5.0259898095        1.1976806518
 C         -1.3732249035       -4.6946176484        0.9710557413
 H         -2.0014044840       -5.4150543180        0.4692121814
 H         -1.8884086232       -4.1165741277        1.7244781110
 H          0.4358541955       -5.9808479799        0.8513397421
 H          0.5219791762       -4.6841822296        2.1167245018
 H         -0.2202764227       -4.2542165699       -0.8698610285
