  62
        -98.93927510
 C         -2.4749150599       -1.0522785605        0.3587986404
 C         -2.5645758596        0.1493468494        1.1108641606
 C         -3.7894597096        0.9374451596        0.9416809808
 C         -4.7630423597        0.4858714998        0.1306462908
 C         -6.0921892596        1.1464445100       -0.1163703691
 C         -6.0566870295        2.2444973102       -1.1877768090
 C         -5.3609594093        3.5393931900       -0.7669115788
 H         -5.5971445992        4.2909458701       -1.5227074187
 H         -5.7796163692        3.8851747599        0.1786335912
 C         -3.8347473793        3.4262924698       -0.6449089689
 H         -3.4913866195        2.5287290898       -1.1648828991
 H         -3.3645538992        4.2798077098       -1.1385686488
 C         -3.3126655392        3.3926199095        0.7917658910
 H         -2.2259966992        3.2734768094        0.7588979010
 H         -3.5317629791        4.3428277795        1.2841682312
 C         -3.8877358993        2.2560596095        1.6473121009
 H         -3.2989916993        2.1863158593        2.5654159509
 H         -4.9235080893        2.4705067496        1.9105397510
 H         -5.5725155696        1.8448630102       -2.0816603090
 H         -7.0913923095        2.4804422503       -1.4465218789
 H         -6.7711164397        0.3596576702       -0.4518612391
 H         -6.4731021195        1.5601420700        0.8177588510
 O         -4.6497806799       -0.6767298601       -0.5597792594
 C         -3.5058425500       -1.4606239803       -0.4885449196
 O         -3.5596229901       -2.4711666502       -1.2164549297
 O         -1.6638930495        0.5377249092        1.9041880206
 C         -1.2097964400       -1.8723463807        0.5407098202
 C         -0.2049000100       -1.6364019907       -0.5623844398
 C         -0.5052173601       -1.9063349605       -1.8934405998
 C          0.4429501099       -1.6973590805       -2.8780512798
 C          1.7027090300       -1.2237770607       -2.5574683098
 C          2.0176146201       -0.9622747609       -1.2285712098
 C          1.0614201301       -1.1666365909       -0.2434183798
 H          1.3088414302       -0.9397966211        0.7826704202
 N          3.3112099601       -0.5387200011       -0.8796123599
 S          3.5471831104        0.4862071687        0.4390186003
 O          3.3818971403       -0.2711681215        1.6537918302
 O          2.7374186005        1.6763487088        0.3004052805
 C          5.2723142004        0.8758224085        0.2123323802
 C          6.2089577603       -0.0833530417        0.5496410900
 C          7.5522957303        0.1940667081        0.3542921500
 C          7.9352299804        1.4195708681       -0.1709745099
 C          6.9844189606        2.3731477283       -0.5017040997
 C          5.6384427805        2.1010196985       -0.3110000497
 H          4.8644085506        2.8134793786       -0.5473821995
 H          7.2853688807        3.3260647483       -0.9063006096
 H          8.9816530905        1.6336949080       -0.3207001599
 H          8.2945359802       -0.5438488820        0.6126747399
 H          5.8646022602       -1.0165177717        0.9637685199
 H          3.8459226601       -0.2267827811       -1.6792146598
 H          2.4400527399       -1.0626718307       -3.3292611099
 H          0.1967543398       -1.9036392803       -3.9088765798
 H         -1.4881588702       -2.2726230603       -2.1465238798
 H         -0.7622732098       -1.4998024109        1.4731672103
 C         -1.4682593501       -3.3590981407        0.6978546001
 C         -0.4311298402       -4.2045068209        1.3713447599
 C         -1.7299773001       -3.9180555808        2.0623446000
 H         -2.4509684602       -4.7153764808        2.1619580800
 H         -1.7237283700       -3.2281287109        2.8940024001
 H         -0.2571607304       -5.2013246209        0.9965965498
 H          0.4570680199       -3.7088322011        1.7347962599
 H         -2.0132135402       -3.7905719405       -0.1314020700
