  62
        -98.93142474
 C         -2.4504213297       -1.2640121703       -0.3427948508
 C         -2.0273925497        0.0586971796       -0.0647666003
 C         -3.0349412197        0.9618141594        0.5302723401
 C         -4.2725667397        0.5052407593        0.7915000499
 C         -5.4766654196        1.1771443790        1.4182332202
 C         -5.5315469496        2.6942943890        1.5780250508
 C         -5.6123910297        3.4742479095        0.2660386111
 H         -6.5925289297        3.2963026496       -0.1835133890
 H         -5.5412062297        4.5392467094        0.4974590815
 C         -4.5564550597        3.1207469899       -0.7782793691
 H         -4.7359368897        3.7436877502       -1.6587229689
 H         -4.6822920597        2.0815812700       -1.0891471795
 C         -3.1081666797        3.3373693297       -0.3437047390
 H         -2.9781144497        4.3638826896        0.0043224913
 H         -2.4760504697        3.2008080300       -1.2253664991
 C         -2.5939669197        2.3810380493        0.7465976206
 H         -1.5006037197        2.3725938093        0.7039644906
 H         -2.8759376996        2.7231258189        1.7394620307
 H         -4.6940414896        3.0402163488        2.1768351009
 H         -6.4386249496        2.9133570288        2.1479775909
 H         -5.5877074696        0.7210567687        2.4083445700
 H         -6.3394642997        0.8479822893        0.8303203201
 O         -4.6242702297       -0.7895244706        0.5368603594
 C         -3.7402625297       -1.6938358604       -0.0198455209
 O         -4.2160688897       -2.8359098404       -0.1775293114
 O         -0.8710607597        0.4961945697       -0.2979361102
 C         -1.5268247897       -2.3208056501       -0.9288177512
 C         -0.2520239997       -2.3717772604       -0.1252260713
 C         -0.2401902596       -3.0482141408        1.0904577085
 C          0.8959290904       -3.0629042011        1.8782113085
 C          2.0376410604       -2.3931881010        1.4750197387
 C          2.0290478003       -1.7025849305        0.2708426289
 C          0.8948505803       -1.7095527102       -0.5309637610
 H          0.8903609703       -1.1575619899       -1.4578046308
 N          3.1810102603       -1.0068716704       -0.1427407608
 S          4.0159910403       -0.1396863108        1.0432987395
 O          4.9196122704       -1.0458291910        1.7104112591
 O          3.0957543904        0.5706615589        1.9022553498
 C          4.9441828703        1.0057648996        0.0420412799
 C          6.2299905403        0.6813457297       -0.3456177202
 C          6.9333558803        1.5708832900       -1.1425138099
 C          6.3420313803        2.7616503602       -1.5368797195
 C          5.0499397803        3.0732037000       -1.1400814193
 C          4.3406158803        2.1879720697       -0.3438919796
 H          3.3369354803        2.3938253096       -0.0056683395
 H          4.5926350903        4.0001864401       -1.4468451890
 H          6.8911860003        3.4537381904       -2.1555411392
 H          7.9384076703        1.3335179401       -1.4517243400
 H          6.6494876803       -0.2516755104       -0.0074492506
 H          2.9889832903       -0.4193273701       -0.9432097406
 H          2.9250830604       -2.3772753812        2.0875697687
 H          0.8921466604       -3.5928357815        2.8191731583
 H         -1.1394930696       -3.5526577910        1.4176718083
 H         -2.0596370397       -3.2726815701       -0.7759857216
 C         -1.2818994297       -2.1988031595       -2.4256529912
 C         -2.4185825797       -1.8794710092       -3.3496023110
 C         -1.3036087697       -0.8967140292       -3.1652787707
 H         -0.6026555298       -0.7630518389       -3.9765729406
 H         -1.4971436897        0.0031983106       -2.6041898403
 H         -2.4903771598       -2.4127310288       -4.2854182612
 H         -3.3747115597       -1.6590486393       -2.8967477809
 H         -0.5707550197       -2.9421133194       -2.7735820215
