  62
        -98.94111295
 C         -2.0553075607        0.7488937211        0.4466993577
 C         -3.1894268095        1.2904588241       -0.2136544233
 C         -4.4585062031        0.5840538012       -0.0116901334
 C         -4.4911198119       -0.5191422224        0.7569432755
 C         -5.7109852852       -1.3386022583        1.0797098870
 C         -6.0676413012       -2.3761388552        0.0064671531
 C         -6.6550744538       -1.8021479957       -1.2835472130
 H         -7.0589893503       -2.6420245213       -1.8524028935
 H         -7.4892371087       -1.1433438203       -1.0399338426
 C         -5.6433507638       -1.0525424769       -2.1617081267
 H         -4.6286901772       -1.3199459359       -1.8571676279
 H         -5.7584491533       -1.3692700943       -3.2008021762
 C         -5.7844829285        0.4694537484       -2.1341132412
 H         -4.9964717121        0.8980386403       -2.7584478729
 H         -6.7471335639        0.7559079411       -2.5633576552
 C         -5.6698480804        1.0895814204       -0.7354745469
 H         -6.5710414790        0.8845520966       -0.1578928699
 H         -5.5639301114        2.1713672367       -0.8482098816
 H         -5.1731207089       -2.9583410360       -0.2272822540
 H         -6.8018516288       -3.0570465004        0.4433633827
 H         -6.5625990228       -0.6782716437        1.2466622813
 H         -5.4929865648       -1.8674757687        2.0101497917
 O         -3.3818973369       -1.0180465620        1.3607098454
 C         -2.1352428397       -0.4184732242        1.2083243772
 O         -1.2208200634       -1.0198938619        1.8009256628
 O         -3.1420237436        2.3196697588       -0.9378970638
 C         -0.7276645380        1.4556240291        0.2325138307
 C          0.3231728665        0.4631864587       -0.1925181549
 C          0.2940099305       -0.0389634307       -1.4902249996
 C          1.2234427170       -0.9721579834       -1.9095274448
 C          2.2012825973       -1.4257108938       -1.0421744687
 C          2.2375925330       -0.9318524632        0.2549918226
 C          1.3122472877        0.0169507932        0.6696325105
 H          1.3386138843        0.3771348413        1.6860887572
 N          3.2282976038       -1.3908476850        1.1389050100
 S          4.8064605119       -1.4382923426        0.5911985899
 O          5.0118918042       -2.6169871059       -0.2133040672
 O          5.6262363674       -1.3326955107        1.7777682136
 C          4.9764919216        0.0217277818       -0.4203754097
 C          5.1800795016       -0.0963102463       -1.7797569037
 C          5.2556351988        1.0544954471       -2.5483561495
 C          5.1229171031        2.2963052009       -1.9475866529
 C          4.9224117601        2.3986705138       -0.5792262324
 C          4.8468603971        1.2518764912        0.1937300588
 H          4.6992715300        1.2946841501        1.2608931626
 H          4.8218012626        3.3661627694       -0.1141294425
 H          5.1760775271        3.1907540357       -2.5479746123
 H          5.4130001269        0.9782823232       -3.6120827553
 H          5.2768578153       -1.0809959936       -2.2068394306
 H          3.1632642665       -1.0022508479        2.0676082983
 H          2.9246480855       -2.1659571697       -1.3435938511
 H          1.1851151890       -1.3545962218       -2.9182288193
 H         -0.4765247389        0.3062819822       -2.1659281132
 H         -0.9192686595        2.1314336962       -0.6168378276
 C         -0.2831278038        2.3384674816        1.3890080505
 C         -1.2888484167        3.1022009596        2.1961528925
 C         -0.5121378487        1.9877233336        2.8275714807
 H          0.2563967189        2.2431569490        3.5431786785
 H         -1.0213163510        1.0631384480        3.0494791629
 H         -1.0594559557        4.1179508740        2.4808291178
 H         -2.3332698098        2.9344066346        1.9767279140
 H          0.6435761532        2.8564992327        1.1603141373
