  62
        -98.94577980
 C         -2.4850681497       -1.1197421299       -0.0506903600
 C         -3.0838384496       -0.2210949102        0.8639532204
 C         -3.5538954197        1.0491096699        0.3022709408
 C         -3.3997492400        1.2947510003       -1.0117503992
 C         -3.8311852702        2.5417690804       -1.7345675488
 C         -2.8099285303        3.6852472705       -1.6577092087
 C         -2.7067684001        4.3736660001       -0.2960933486
 H         -2.1226605702        5.2845218102       -0.4411043684
 H         -3.7016209701        4.6720773300        0.0364110317
 C         -2.0315611798        3.5262183999        0.7917171811
 H         -1.4740953499        2.7096081601        0.3237785608
 H         -1.2991868298        4.1356520598        1.3272763111
 C         -2.9933615196        2.9497311696        1.8317408311
 H         -3.4506879396        3.7652327794        2.3962355914
 H         -2.4153938495        2.3400233595        2.5315047709
 C         -4.1086600197        2.0728015397        1.2465010111
 H         -4.5926393295        1.5406901694        2.0691128711
 H         -4.8503428498        2.6931099497        0.7445995214
 H         -3.1009520405        4.4338234906       -2.3982593385
 H         -1.8281748203        3.2982879206       -1.9431741390
 H         -4.7906827302        2.8812608203       -1.3437221986
 H         -3.9587435804        2.2649640407       -2.7831697489
 O         -2.8268266301        0.4019189905       -1.8606693795
 C         -2.3167047499       -0.8038228495       -1.3994641599
 O         -1.7637025300       -1.4927121093       -2.2766114202
 O         -3.2095355893       -0.4649188805        2.0954179103
 C         -1.8994708895       -2.4179717000        0.4802899196
 C         -0.3971018295       -2.3271880999        0.3686211594
 C          0.3900014605       -3.2268875796       -0.3359410210
 C          1.7560741104       -3.0252173295       -0.4443986212
 C          2.3635805504       -1.9310145796        0.1437786690
 C          1.5853246405       -1.0308885098        0.8604260593
 C          0.2223171005       -1.2394098500        0.9741648395
 H         -0.3830752294       -0.5306065701        1.5270678698
 N          2.1962775305        0.1013313101        1.4498520795
 S          2.7244130002        1.2538582604        0.3376609797
 O          2.7940071703        2.4965311802        1.0760939700
 O          1.8988104900        1.2588857206       -0.8497900701
 C          4.3728614602        0.7125091406       -0.0554787007
 C          4.6815006300        0.3178584809       -1.3420915709
 C          5.9711994600       -0.1091646589       -1.6191052512
 C          6.9219898502       -0.1342330691       -0.6101063314
 C          6.5953994504        0.2669286206        0.6770415988
 C          5.3087188604        0.6957878904        0.9605728591
 H          5.0114613505        1.0203962901        1.9436945493
 H          7.3375127405        0.2456102504        1.4586896487
 H          7.9237228402       -0.4688317089       -0.8287359216
 H          6.2266996898       -0.4217420586       -2.6188207913
 H          3.9061361099        0.3475937711       -2.0911377607
 H          1.5942847206        0.5571272399        2.1227921997
 H          3.4252105804       -1.7678225495        0.0543746588
 H          2.3550340204       -3.7287051393       -1.0021637315
 H         -0.0678384396       -4.0767504795       -0.8144054211
 H         -2.1624542793       -2.4400524203        1.5481830896
 C         -2.5017261895       -3.6279084599       -0.1974648506
 C         -2.4771208693       -4.9572415900        0.4944432791
 C         -3.7684244194       -4.2111346701        0.3507090195
 H         -4.5063319795       -4.5824306000       -0.3442913305
 H         -4.1921403492       -3.7447489703        1.2281875997
 H         -2.3305244493       -5.8457130599       -0.1005240412
 H         -2.0238719391       -5.0013086702        1.4731276690
 H         -2.3874301197       -3.6060802496       -1.2747882706
