  62
        -98.94479981
 C          1.7884264902        0.3815173998        0.1554290300
 C          2.9013014501        0.4364398696        1.0379846601
 C          4.0354853002       -0.4347434002        0.7167844599
 C          3.9661365204       -1.2487988198       -0.3515550304
 C          5.0249570605       -2.2188880996       -0.7998290806
 C          6.1236724506       -1.5865660792       -1.6651126302
 C          7.1045848804       -0.6856735993       -0.9136832398
 H          7.5022841804       -1.2228841196       -0.0520867200
 H          7.9399910204       -0.4890584590       -1.5886240497
 C          6.5116144002        0.6552215705       -0.4586602594
 H          7.2068316502        1.4617134506       -0.7023361791
 H          5.5890121903        0.8509883206       -1.0098774595
 C          6.2212952101        0.7454014899        1.0396538806
 H          5.7712598999        1.7203756298        1.2431781008
 H          7.1575957100        0.6838299998        1.5986971706
 C          5.2670340701       -0.3352090604        1.5651603601
 H          5.7766052402       -1.2975806503        1.6101211698
 H          4.9546235700       -0.0565947207        2.5744906402
 H          6.6889598507       -2.4025132790       -2.1213815605
 H          5.6510436906       -1.0192834989       -2.4703070901
 H          5.4752590605       -2.6975780798        0.0702993393
 H          4.5164652907       -2.9826678594       -1.3923733109
 O          2.8765019805       -1.2928329597       -1.1594508805
 C          1.7763042504       -0.4737073799       -0.9463616803
 O          0.8816929805       -0.6263700197       -1.8040822705
 H         -0.8257751596       -0.7589830603       -0.4762555507
 C         -1.1756175998       -0.4329194007        0.4917673494
 C         -0.5215620099        0.6067083392        1.1371972798
 C         -0.9867524401        1.0091253687        2.3834606899
 C         -2.0802148401        0.3891527584        2.9640940296
 C         -2.7305051399       -0.6456899314        2.3158630492
 C         -2.2644098998       -1.0613473410        1.0759309491
 N         -2.9291386696       -2.1071596008        0.3953397987
 S         -4.5024549696       -1.7393218408       -0.0555476814
 O         -5.3497804197       -1.8012145213        1.1085636485
 O         -4.8300483494       -2.6493036305       -1.1298550217
 C         -4.4095790397       -0.0615346006       -0.6537296408
 C         -3.8529338996        0.1577007499       -1.8979203707
 C         -3.7110452397        1.4597631200       -2.3485062502
 C         -4.1192025299        2.5144351497       -1.5465074199
 C         -4.6690810000        2.2779594092       -0.2963675900
 C         -4.8146150199        0.9775839591        0.1589517995
 H         -5.2388659500        0.7482865787        1.1225164294
 H         -4.9807888201        3.1015376590        0.3253128502
 H         -4.0116615199        3.5278192799       -1.9008823495
 H         -3.2781124896        1.6454026204       -3.3186455801
 H         -3.5507202094       -0.6872830699       -2.4963484109
 H         -2.4158516395       -2.4205311305       -0.4173722814
 H         -3.5918137999       -1.1331309417        2.7434539689
 H         -2.4305249002        0.7151959780        3.9314231997
 H         -0.4802699902        1.8099785786        2.9018427202
 C          0.6322851601        1.3158121695        0.4699732702
 H          1.0409552399        2.0379522593        1.1893351405
 C          0.1290645501        2.0771461499       -0.7426356296
 C         -0.6015245001        3.3684639598       -0.5379293292
 C          0.7796500600        3.3725020401       -1.1197406391
 H          0.9014886901        3.6009744905       -2.1678561690
 H          1.5940524899        3.7210218700       -0.5012101889
 H         -1.4337754900        3.5929009799       -1.1858505592
 H         -0.7250671602        3.7174967494        0.4756943109
 H         -0.2014171198        1.4322910701       -1.5463909699
 O          2.9430870199        1.1873410792        2.0482210504
