  62
        -98.93165553
 C          2.5725002899        1.2981492603       -0.4205509286
 C          2.4099438700        0.0167661305       -0.9998302792
 C          3.5122118599       -0.9356209296       -0.7819545092
 C          4.5875370797       -0.5523780900       -0.0713042687
 C          5.7400159395       -1.4353749102        0.3143062813
 C          5.3329491091       -2.3407684806        1.4947460608
 C          5.2885194691       -3.8322968705        1.1613623002
 H          6.3099897991       -4.2156025006        1.1142030404
 H          4.7855272288       -4.3365948808        1.9892765199
 C          4.5879147895       -4.2046071800       -0.1488954001
 H          4.4038794394       -5.2805587500       -0.1151189306
 H          5.2631986498       -4.0310235997       -0.9880701099
 C          3.2612292296       -3.4871374798       -0.4295623603
 H          2.8001785794       -3.1516518201        0.4998792097
 H          2.5760385397       -4.2067779295       -0.8820534608
 C          3.3696271600       -2.2980076694       -1.4026111798
 H          4.1944427302       -2.4697298392       -2.0994928596
 H          2.4482273202       -2.2428690791       -1.9894895400
 H          6.0301360789       -2.1961504010        2.3214698111
 H          4.3527319990       -2.0172064507        1.8519090706
 H          6.0481906398       -2.0342884299       -0.5396874189
 H          6.5660867295       -0.7848122804        0.6019855018
 O          4.7133094896        0.6914782698        0.4597830618
 C          3.7154106897        1.6370477499        0.3094022219
 O          3.9608391197        2.7302467497        0.8576003924
 O          1.4052676702       -0.3341061491       -1.6735849996
 C          1.5041564201        2.3773319304       -0.5196373085
 C          0.3704991797        2.0253931201        0.4146232010
 C          0.3478407894        2.5537927796        1.7014502812
 C         -0.6621157209        2.2164754993        2.5841491207
 C         -1.6627423209        1.3382869396        2.2073572801
 C         -1.6438195205        0.7981029201        0.9281258199
 C         -0.6401550802        1.1544828903        0.0358665003
 H         -0.6201592899        0.7155719107       -0.9495207798
 N         -2.6268911904       -0.1322479097        0.5450493392
 S         -4.2288752006        0.1900310202        0.9631309688
 O         -4.5769943504        1.5485956504        0.6092138293
 O         -4.4193855910       -0.1638586503        2.3481205986
 C         -5.0902749003       -0.9695971593       -0.0789189619
 C         -5.0915677805       -2.3038362495        0.2817919476
 C         -5.7372424403       -3.2173047791       -0.5357724229
 C         -6.3674954399       -2.7841162286       -1.6931293430
 C         -6.3591636497       -1.4417538185       -2.0405619025
 C         -5.7132430099       -0.5227528688       -1.2282756919
 H         -5.6859271798        0.5309331213       -1.4554691415
 H         -6.8523540394       -1.1080021581       -2.9393123125
 H         -6.8702142498       -3.4972105383       -2.3272861034
 H         -5.7473298205       -4.2617122592       -0.2686336634
 H         -4.5972970808       -2.5933674098        1.1943203076
 H         -2.5451876002       -0.3835268094       -0.4307933709
 H         -2.4557767611        1.0667031494        2.8853898797
 H         -0.6703170112        2.6387645790        3.5780471809
 H          1.1392335293        3.2242618494        2.0065068917
 H          1.9742193500        3.2945403802       -0.1410362380
 C          1.0465311905        2.6248316210       -1.9427429286
 C          0.2574289807        3.8622660012       -2.2440352684
 C          1.6698750608        3.7369481012       -2.7289148680
 H          1.8421327111        3.5875033316       -3.7842564080
 H          2.4315913307        4.3287634210       -2.2423367375
 H         -0.5425057591        3.8020459815       -2.9659916786
 H          0.0593570905        4.5380437208       -1.4254693782
 H          0.7959373706        1.7215442012       -2.4826173790
