  62
        -98.94509714
 C          1.4263980234        1.3967707170        0.4203312003
 C          1.8710430704        0.3527521785        1.2699228742
 C          2.7971829067       -0.6177981545        0.6779933304
 C          3.1379049587       -0.5060845029       -0.6182262645
 C          4.0636815700       -1.4208290946       -1.3727683192
 C          3.3813940661       -2.6942486014       -1.8917224853
 C          3.0749149413       -3.7486388748       -0.8272053830
 H          2.8266046354       -4.6714951545       -1.3553109705
 H          3.9713094235       -3.9408943490       -0.2358658834
 C          1.9071008079       -3.3883001880        0.1016785375
 H          1.2557080892       -4.2585742363        0.2184325744
 H          1.3006721670       -2.6081478023       -0.3668304536
 C          2.3261989630       -2.9461288654        1.5042688751
 H          1.4262496711       -2.6782502578        2.0633901936
 H          2.8035578646       -3.7826300466        2.0202778234
 C          3.2818479908       -1.7467092029        1.5377830859
 H          3.3330242056       -1.3806944776        2.5664997978
 H          4.2798239779       -2.0548356936        1.2262163514
 H          4.0452443701       -3.1408316017       -2.6360405794
 H          2.4533615154       -2.4133799949       -2.3968423944
 H          4.4316943275       -0.8529125909       -2.2300618208
 H          4.9124930486       -1.6902995473       -0.7430827466
 O          2.6733207295        0.4942597242       -1.4101795486
 C          1.7870532632        1.4494470100       -0.9277075416
 O          1.4184047754        2.2699597630       -1.7890714422
 H         -0.7487746390        0.3323048698       -0.2076346519
 C         -1.2761817423        1.2446826963       -0.4330523166
 C         -0.7970424554        2.4429600913        0.0794878784
 C         -1.4663527835        3.6143072626       -0.2482509079
 C         -2.5725859127        3.5738655380       -1.0809655232
 C         -3.0337054727        2.3793836937       -1.6023246737
 C         -2.3668907228        1.2004470469       -1.2829268841
 N         -2.7727596610       -0.0255892859       -1.8139620852
 S         -2.2241923904       -1.4986863474       -1.2807706303
 O         -0.8022214352       -1.6290393471       -1.4826194749
 O         -3.0546716441       -2.4507359453       -1.9875760273
 C         -2.6262638915       -1.5459788976        0.4561531595
 C         -1.6284767597       -1.6075493724        1.4064072266
 C         -1.9749845988       -1.6049959994        2.7481722717
 C         -3.3101287461       -1.5468873507        3.1152919472
 C         -4.3040168883       -1.4983190153        2.1490136430
 C         -3.9615036020       -1.4949101094        0.8070332315
 H         -4.7053965150       -1.4658139539        0.0278984740
 H         -5.3417624850       -1.4584078393        2.4382920809
 H         -3.5753523370       -1.5408536117        4.1606906961
 H         -1.1951450012       -1.6338107276        3.4928633659
 H         -0.5969240789       -1.6470753812        1.0918109380
 H         -3.6419073602       -0.0495678004       -2.3210113848
 H         -3.8858185521        2.3565670259       -2.2637741523
 H         -3.0807902346        4.4919824073       -1.3343098102
 H         -1.1138779515        4.5609593362        0.1267012065
 C          0.4104837717        2.3744003308        0.9837231630
 H          0.0862105949        1.9032357326        1.9282653231
 C          0.9705907890        3.7391203070        1.3583740561
 C          2.4440308276        3.9619158412        1.5188158979
 C          1.7109170833        4.5955047436        0.3766444938
 H          1.5485895265        5.6632530775        0.4021882337
 H          1.8609193784        4.1960147137       -0.6137772889
 H          2.7823245926        4.5896853088        2.3297110293
 H          3.1034824237        3.1335915208        1.3021500635
 H          0.3349965671        4.2586743075        2.0687877735
 O          1.5024773657        0.2324215155        2.4693311127
