  62
        -98.94967541
 C         -1.4988280723       -1.0653189349        0.0403822639
 C         -2.5176093995       -0.6404617253        0.9233661775
 C         -3.0516672018        0.7063161917        0.6870629673
 C         -2.5312540427        1.4561110386       -0.3021411249
 C         -3.0071077496        2.8296767266       -0.6756026326
 C         -4.1011092122        2.7694394827       -1.7509913431
 C         -5.2244227385        1.7823815667       -1.4334148884
 H         -5.9523474434        1.8460199964       -2.2449762055
 H         -4.8193171833        0.7680176229       -1.4418599728
 C         -5.9296243951        2.0337212604       -0.0934006566
 H         -7.0081901423        1.9544150308       -0.2445297564
 H         -5.7237690218        3.0484604878        0.2490906686
 C         -5.5614254988        1.0427844955        1.0123227467
 H         -6.2677452495        1.1744084045        1.8363199420
 H         -5.6768885863        0.0210619028        0.6420258934
 C         -4.1494181227        1.1860856502        1.5948087656
 H         -3.9757673529        2.2221049134        1.8942880654
 H         -4.0928193967        0.5583694341        2.4893468019
 H         -3.6405830730        2.4726933707       -2.6960334345
 H         -4.5175242842        3.7707438013       -1.8750396778
 H         -3.3827891496        3.3310071052        0.2144828304
 H         -2.1545837844        3.3918716516       -1.0611462933
 O         -1.5360391739        1.0239396817       -1.1155405822
 C         -0.9897914061       -0.2382583800       -0.9600443682
 O         -0.0776406059       -0.5085683790       -1.7658162392
 H          0.4278425936       -0.5594443098        1.6024718278
 C          1.1050422909       -1.2815429705        1.1694999452
 C          0.6059432434       -2.3349927226        0.4140976726
 C          1.5064418795       -3.2496184462       -0.1189711699
 C          2.8676984725       -3.0951168833        0.0795848513
 C          3.3611176002       -2.0167927482        0.7908895271
 C          2.4678783231       -1.1020052232        1.3352533521
 N          2.9138340542        0.0358423449        2.0438898520
 S          2.6127469895        1.5139313443        1.3071356290
 O          3.2451070730        2.4960957595        2.1627509008
 O          1.1990425360        1.6756180186        1.0874599362
 C          3.5077563663        1.4104259844       -0.2329006666
 C          2.9462437511        0.7469627012       -1.3052782545
 C          3.6988324294        0.5990224812       -2.4612755379
 C          4.9863074227        1.1082791249       -2.5247673408
 C          5.5341154565        1.7729508095       -1.4375143669
 C          4.7916351229        1.9210245976       -0.2778275793
 H          5.1727508947        2.4318806574        0.5918469523
 H          6.5345657297        2.1714435114       -1.4889499299
 H          5.5644555416        0.9868481844       -3.4272147923
 H          3.2647799091        0.0814605621       -3.3017054803
 H          1.9395441890        0.3625280473       -1.2408999726
 H          3.8925493168       -0.0062490335        2.2964251997
 H          4.4237620004       -1.8795085983        0.9235932734
 H          3.5537308640       -3.8137806674       -0.3416994906
 H          1.1409688431       -4.0831053490       -0.6963322662
 C         -0.8869763756       -2.4415196506        0.2219593606
 H         -1.3282077191       -2.8395112343        1.1486486221
 C         -1.2772476012       -3.3451184816       -0.9308613829
 C         -1.4751492191       -4.8151294270       -0.7146401367
 C         -2.6577974569       -3.9273034621       -0.9549087278
 H         -3.1738106518       -3.9943496529       -1.9009433847
 H         -3.3045139284       -3.6963529471       -0.1208386650
 H         -1.1813786051       -5.4957125686       -1.4995392309
 H         -1.3273080130       -5.1989566357        0.2834359631
 H         -0.8566232299       -3.0157962610       -1.8746110829
 O         -2.9557786535       -1.3539408055        1.8680597847
