  62
        -98.93911922
 C          2.1842909834        1.2215044114        0.2279557848
 C          1.8976723321        0.2328622312       -0.7432258941
 C          2.7266160123       -0.9866677012       -0.6939913694
 C          3.6752376702       -1.1052407094        0.2507713075
 C          4.6721301212       -2.2196243433        0.4538803330
 C          4.1787507710       -3.6619195439        0.2833489752
 C          2.7317184915       -3.9081520465        0.7343821813
 H          2.7104002394       -4.7638214281        1.4119580240
 H          2.3617366657       -3.0451011350        1.2913931899
 C          1.7863335110       -4.2077671232       -0.4311973741
 H          0.8991408563       -4.7144890938       -0.0427655268
 H          2.2831364623       -4.8979723334       -1.1163040039
 C          1.3027093565       -2.9864673669       -1.2114339873
 H          0.6228746893       -2.4014889099       -0.5865935598
 H          0.7241990783       -3.3445199729       -2.0661956337
 C          2.4032313361       -2.0389113443       -1.7164236536
 H          3.2891515374       -2.5909714944       -2.0200655184
 H          2.0136184302       -1.5016194071       -2.5852554580
 H          4.8532236305       -4.2952576253        0.8621708421
 H          4.2827232213       -3.9637550782       -0.7577470608
 H          5.0488165211       -2.0806203302        1.4703936791
 H          5.5126232201       -2.0471350370       -0.2249979537
 O          3.8912929936       -0.1394295862        1.1896920562
 C          3.1644888849        1.0391961863        1.2009934440
 O          3.4750320157        1.8271575650        2.1182906511
 O          1.0044714932        0.3597039625       -1.6179887416
 C          1.4317402613        2.5387126641        0.2216696984
 C         -0.0608760551        2.3325616509        0.3159186648
 C         -0.9714036976        3.1408645103       -0.3543145840
 C         -2.3330339298        2.9348062264       -0.2144347972
 C         -2.8180915356        1.9154602545        0.5834359070
 C         -1.9162654180        1.0940798791        1.2483876187
 C         -0.5529619280        1.3155571745        1.1232592292
 H          0.1440717127        0.6770447977        1.6530807459
 N         -2.3976499001        0.0308186739        2.0296641403
 S         -3.6573902149       -0.8859149911        1.4148620354
 O         -4.9134730655       -0.2694472187        1.7661461447
 O         -3.4472964021       -2.2160793492        1.9447804494
 C         -3.4690353100       -0.8776960249       -0.3601555474
 C         -2.2230111975       -1.1284515883       -0.8973123387
 C         -2.0615553718       -1.0948839101       -2.2718613121
 C         -3.1519000004       -0.8282722544       -3.0853846280
 C         -4.4019473591       -0.5939998374       -2.5332785880
 C         -4.5640995955       -0.6112656066       -1.1572439498
 H         -5.5129315189       -0.4143178334       -0.6849453535
 H         -5.2478102803       -0.3881231534       -3.1693088237
 H         -3.0229768323       -0.7991069174       -4.1558184417
 H         -1.0790867425       -1.2491463326       -2.6877283459
 H         -1.3856567743       -1.3274185946       -0.2477844797
 H         -1.6747305606       -0.5567626458        2.4176403496
 H         -3.8752991224        1.7416238142        0.7043575387
 H         -3.0269039141        3.5742677881       -0.7378231461
 H         -0.6134438024        3.9354348872       -0.9878039256
 H          1.7546121174        3.0748829063        1.1270320583
 C          1.8423725464        3.3488257460       -0.9929384332
 C          1.9257373284        4.8431235065       -0.9204670633
 C          3.1793249541        4.0251428323       -0.9870213772
 H          3.7580492478        4.0354636242       -1.8984285541
 H          3.7777321283        3.9284708570       -0.0922538646
 H          1.6462536430        5.4185666035       -1.7901967587
 H          1.6809137429        5.3146060330        0.0194315839
 H          1.5146225836        2.8969781138       -1.9220776132
