  62
        -98.94061171
 C         -1.9082467603       -0.9012096303        0.3443903204
 C         -2.3657115705        0.0948501292        1.2424327009
 C         -2.6007465110        1.4273029294        0.6735187616
 C         -2.3079551512        1.6469589401       -0.6207843583
 C         -2.5258212018        2.9458810204       -1.3406705177
 C         -3.9153425618        2.9969670602       -1.9916199775
 C         -5.0528530016        2.6021463794       -1.0496497376
 H         -5.9862858617        2.7017867493       -1.6075898174
 H         -4.9460514012        1.5471785693       -0.7869967681
 C         -5.1322452017        3.4381712587        0.2353077828
 H         -6.1742709618        3.7139701183        0.4095887731
 H         -4.5678784521        4.3628128290        0.1103682632
 C         -4.6466453714        2.7157311583        1.4933547024
 H         -4.9446856315        3.3081246277        2.3623406128
 H         -5.1427423810        1.7452159781        1.5731659820
 C         -3.1322170113        2.4915288887        1.5921726522
 H         -2.6069355616        3.4352436190        1.4303167726
 H         -2.9108895010        2.1462104683        2.6064416620
 H         -3.9222872017        2.3132762406       -2.8436884578
 H         -4.0837837422        4.0084442103       -2.3655410570
 H         -2.4109941420        3.7669815001       -0.6354002073
 H         -1.7626418519        3.0373770310       -2.1158097977
 O         -1.8186758210        0.6836223406       -1.4414983789
 C         -1.6020133405       -0.6095631295       -0.9860640995
 O         -1.1519255303       -1.3802414189       -1.8556171899
 H          0.6020085198       -0.8551018497        1.0577558401
 C          0.7986963801       -1.8263043295        0.6274978496
 C         -0.2472370996       -2.7284034197        0.4707322093
 C          0.0267064007       -3.9728127094       -0.0796385013
 C          1.3120682308       -4.2883650888       -0.4860317916
 C          2.3377389905       -3.3691541185       -0.3734056713
 C          2.0751433201       -2.1223449688        0.1838322594
 N          3.0994399098       -1.1598873685        0.3231915297
 S          2.7828422192        0.4078732616       -0.2272673295
 O          1.8150410291        1.0383397609        0.6341029609
 O          2.4753765391        0.3870047422       -1.6414800695
 C          4.3864348390        1.1447582120        0.0328242507
 C          4.6950326090        1.6296845015        1.2891561809
 C          5.9510174388        2.1728181119        1.5083094910
 C          6.8734715587        2.2197105527        0.4736264209
 C          6.5493000987        1.7299898832       -0.7825811993
 C          5.2948208489        1.1851372428       -1.0079015594
 H          4.9944566289        0.8032946132       -1.9705399996
 H          7.2670562386        1.7702624238       -1.5858986394
 H          7.8500501886        2.6432705729        0.6468321910
 H          6.2045618988        2.5572593915        2.4830332111
 H          3.9420432091        1.5786817109        2.0583081909
 H          3.9616449999       -1.4778023580       -0.1031561905
 H          3.3323624005       -3.6081565280       -0.7194286515
 H          1.5119734111       -5.2573653485       -0.9180135121
 H         -0.7674132290       -4.6883558996       -0.2157319716
 C         -1.6193401797       -2.2804079804        0.9106405297
 H         -1.5872605697       -2.1210523909        2.0024689398
 C         -2.7100901194       -3.3103033107        0.6557458493
 C         -4.1094998096       -2.8906004310        0.3211517397
 C         -3.2613127395       -3.5616986102       -0.7148411707
 H         -3.5022139092       -4.5773983201       -0.9927513812
 H         -2.8669757498       -2.9665487497       -1.5234219805
 H         -4.3022903900       -1.8326617410        0.2149458002
 H         -4.9285285094       -3.4428146415        0.7570922395
 H         -2.6156585190       -4.1732643310        1.3076750689
 O         -2.5642363503       -0.1225505415        2.4688646808
