  62
        -98.94497441
 C         -2.3261055779       -0.4478684439       -0.1150405380
 C         -1.3816364774       -0.7742258176        0.8817890501
 C         -0.7362672355       -2.0972645992        0.7878632401
 C         -1.0583872970       -2.9001359972       -0.2429848471
 C         -0.5080949846       -4.2640563624       -0.5666225605
 C          0.9016367250       -4.2102487348       -1.1774149934
 C          1.8669644594       -3.2424186251       -0.4969510697
 H          2.7851422456       -3.2215248952       -1.0916430095
 H          1.4488554951       -2.2344524020       -0.5373044782
 C          2.2471867780       -3.5982771180        0.9383733569
 H          2.7216583446       -4.5824598122        0.9463494265
 H          2.9906493021       -2.8662407425        1.2649586867
 C          1.1039823917       -3.6023546629        1.9546585585
 H          0.4954235613       -4.4971098511        1.8563543213
 H          1.5555479269       -3.6402237386        2.9502266316
 C          0.2267739655       -2.3557055537        1.9216622365
 H          0.8718216467       -1.4720787183        1.9748404649
 H         -0.3808701402       -2.3308874428        2.8344754234
 H          1.3209930689       -5.2183400457       -1.1660956793
 H          0.8059093631       -3.8939410147       -2.2192780209
 H         -1.1856139111       -4.7091757391       -1.2990741721
 H         -0.5222864905       -4.8909180344        0.3204761723
 O         -1.9659804958       -2.5364313078       -1.1949376651
 C         -2.6058866992       -1.3136076207       -1.1692041387
 O         -3.3942173275       -1.1170137202       -2.1186788054
 O         -1.0767311077        0.0116560101        1.8192835798
 C         -2.9963154269        0.9148506372       -0.0971542991
 C         -1.9357423604        1.9900044380       -0.0840027794
 C         -1.9841830662        3.1147153229        0.7298062943
 C         -0.9480690803        4.0331346611        0.7155329226
 C          0.1628376952        3.8392599837       -0.0852072865
 C          0.2137770196        2.7236612452       -0.9137684733
 C         -0.8475870283        1.8337037605       -0.9330914763
 H         -0.8017363834        0.9748597067       -1.5864536488
 N          1.3261249119        2.4747081365       -1.7417549029
 S          2.1366453992        1.0150639084       -1.6146194855
 O          3.1965894859        1.0954694991       -2.5966239819
 O          1.2132975361       -0.0798662371       -1.7589553876
 C          2.8597214439        1.0122066967        0.0174231898
 C          4.2304111901        1.1389408820        0.1385622207
 C          4.7951131990        1.1631832993        1.4034197920
 C          3.9822989505        1.0687075707        2.5231949686
 C          2.6084882371        0.9474112972        2.3847469867
 C          2.0363177827        0.9181233639        1.1216409724
 H          0.9689951962        0.8174391685        0.9980451325
 H          1.9662737256        0.8721209051        3.2480293172
 H          4.4197760252        1.0883427969        3.5089076337
 H          5.8637847311        1.2560571926        1.5114676501
 H          4.8209895842        1.2083332943       -0.7605678581
 H          1.9974992655        3.2299241721       -1.7652018795
 H          0.9838780266        4.5400785732       -0.0714334149
 H         -0.9970286542        4.9018546013        1.3541813320
 H         -2.8279669758        3.2674968072        1.3826143469
 H         -3.5591068547        0.9915283526       -1.0393499579
 C         -3.9641657507        1.0109741898        1.0641700405
 C         -5.1869215632        1.8712598501        0.9630708758
 C         -5.3157938131        0.3786789739        0.9326054799
 H         -5.7367901511       -0.1228764377        1.7910053861
 H         -5.5479150833       -0.0990424019       -0.0084566701
 H         -5.5248848853        2.3939011926        1.8451826584
 H         -5.3447898879        2.4104789375        0.0412342718
 H         -3.4672800175        0.9339517198        2.0244023662
