  62
        -98.94089238
 C         -2.3823297996       -1.2776506693        0.1550102487
 C         -2.2359171193        0.1232254808       -0.0110901200
 C         -3.3156531291        0.9484657005        0.5527572707
 C         -4.3422456893        0.3713044302        1.2005963301
 C         -5.5032834691        1.0818718199        1.8415707907
 C         -6.6345777490        1.4380164911        0.8673471609
 C         -6.3248920586        2.5805450319       -0.1007603580
 H         -7.2681842585        2.8681845026       -0.5692232478
 H         -5.9637755084        3.4430617513        0.4602881028
 C         -5.3169221287        2.2224284227       -1.2017591383
 H         -5.6867004285        2.5802320236       -2.1652885679
 H         -5.2293746289        1.1360394727       -1.2763654993
 C         -3.9231619985        2.8183192221       -1.0024065976
 H         -3.2818156486        2.4756004027       -1.8187651179
 H         -3.9786096182        3.9079261822       -1.0559100566
 C         -3.2535607787        2.4284153907        0.3219801720
 H         -2.1990830086        2.7130295505        0.2719420524
 H         -3.7194311686        2.9623390601        1.1501329825
 H         -7.5016640189        1.7241842107        1.4669628912
 H         -6.9030200592        0.5432415817        0.3010285601
 H         -5.9018568993        0.4033206593        2.5988712900
 H         -5.1496432889        1.9865100993        2.3371760415
 O         -4.4292291996       -0.9745603900        1.3699138988
 C         -3.4635135398       -1.8229902897        0.8557902181
 O         -3.6737397001       -3.0296879899        1.0903114670
 H          0.5797286106       -0.9446577483       -1.7585061109
 C          0.8842540804       -1.1610320193       -0.7464095011
 C          0.0231246002       -1.8435961399        0.0967002183
 C          0.4197346401       -2.0792732512        1.4093374481
 C          1.6514773902       -1.6448822120        1.8618520585
 C          2.5062040004       -0.9555482114        1.0193092492
 C          2.1098879305       -0.6978205301       -0.2857227506
 N          2.9616782808        0.0131934905       -1.1468851699
 S          3.7587738111        1.3700504498       -0.5664259686
 O          3.0271165312        2.0301002990        0.4893587520
 O          4.0516215913        2.1629328308       -1.7411511078
 C          5.2864190509        0.7101557488        0.0720229909
 C          6.0368090807       -0.1105942607       -0.7471441098
 C          7.2322282306       -0.6222706214       -0.2685425702
 C          7.6576273506       -0.3036716027        1.0125432501
 C          6.8955275407        0.5251304367        1.8213080108
 C          5.6979288709        1.0391149375        1.3486567612
 H          5.0695784610        1.6825722671        1.9441523418
 H          7.2275055207        0.7726496357        2.8168514411
 H          8.5883491904       -0.7034099833        1.3829903198
 H          7.8275803204       -1.2671227210       -0.8946575908
 H          5.6730239607       -0.3316684396       -1.7365319200
 H          2.5488997809        0.2030948614       -2.0489331997
 H          3.4600800105       -0.5977704720        1.3708938296
 H          1.9482418801       -1.8382776630        2.8815910284
 H         -0.2570913901       -2.5982519217        2.0745315675
 C         -1.3509703799       -2.2758200391       -0.3484809222
 H         -1.5947611901       -3.2171532096        0.1689220669
 C         -1.4274309599       -2.5703534977       -1.8394690925
 C         -2.7586708799       -2.7250098468       -2.5109418827
 C         -1.8754229995       -1.5656844767       -2.8560093616
 H         -1.3868906995       -1.5651975359       -3.8199592516
 H         -2.1540040093       -0.5827704369       -2.5107932107
 H         -2.8837276100       -3.5143311361       -3.2366088334
 H         -3.6385857998       -2.5373275871       -1.9124717226
 H         -0.6472729700       -3.2587108576       -2.1505884931
 O         -1.2719956891        0.6790382011       -0.5988497195
