  62
        -98.93693226
 C         -2.4116707812       -1.0335411038        0.4878306612
 C         -2.4949458919        0.0114302449       -0.4609702902
 C         -3.5313352073        1.0352220301       -0.2238312067
 C         -4.3310256255        0.9356485321        0.8538168893
 C         -5.4327265801        1.8387592410        1.3682501386
 C         -6.0236008623        2.9338235578        0.4841639968
 C         -6.8256462444        2.4253328084       -0.7133934960
 H         -7.1080661320        3.2846983866       -1.3254228158
 H         -7.7449390547        1.9633888948       -0.3446248269
 C         -6.1171065498        1.3993039263       -1.5942004140
 H         -6.8027184697        1.1190941088       -2.3986070844
 H         -5.9153466384        0.4956533189       -1.0154314407
 C         -4.8169102694        1.8768902511       -2.2377458018
 H         -4.9981811114        2.8001499429       -2.7915414632
 H         -4.5049498928        1.1128118055       -2.9549994516
 C         -3.6443112046        2.1078045778       -1.2689874666
 H         -3.7003138628        3.0902809687       -0.8067495961
 H         -2.7165333956        2.0701513725       -1.8473122449
 H         -5.2445006282        3.6170613884        0.1593748546
 H         -6.7051957050        3.5094004211        1.1163848188
 H         -6.2359978999        1.1706961807        1.6949493157
 H         -5.0330232944        2.3048887213        2.2756205576
 O         -4.2036061638       -0.0877335645        1.7493180520
 C         -3.2569099350       -1.0816678148        1.5975768469
 O         -3.2690924435       -1.9428599700        2.4996404926
 H          0.4990949928       -1.1639321557       -1.3819197065
 C          0.8178954275       -1.0972125837       -0.3538092091
 C         -0.0139405228       -1.5561025485        0.6553195408
 C          0.4110756974       -1.4363309934        1.9755779830
 C          1.6361159990       -0.8699457438        2.2735229290
 C          2.4586919085       -0.4010148316        1.2636671242
 C          2.0422194929       -0.5116145150       -0.0557375904
 N          2.8531510568       -0.0088072394       -1.0848650235
 S          4.4892762726       -0.3630812262       -1.0934904797
 O          4.9015790614       -0.2175886641       -2.4724644564
 O          4.7597998469       -1.6404647011       -0.4750123979
 C          5.2170289121        0.9464861782       -0.1306555831
 C          4.9264863836        2.2508051226       -0.4795819855
 C          5.4917682560        3.2815006484        0.2539764825
 C          6.3363067400        2.9926598041        1.3156583794
 C          6.6216219593        1.6780009958        1.6507656653
 C          6.0581598448        0.6422975749        0.9216576672
 H          6.2462788245       -0.3947170033        1.1501513725
 H          7.2785102255        1.4554614733        2.4762510734
 H          6.7742814654        3.7971742250        1.8850890988
 H          5.2715085473        4.3050850422       -0.0033716963
 H          4.2672637081        2.4339917933       -1.3117402030
 H          2.4461352213       -0.0917528579       -2.0047025858
 H          3.4131739495        0.0457843778        1.4892548053
 H          1.9538061713       -0.7882062034        3.3019379144
 H         -0.2387502177       -1.7869588091        2.7655704680
 C         -1.3761744606       -2.1412376408        0.3703910067
 H         -1.6100672962       -2.8532959233        1.1730742825
 C         -1.4624699371       -2.8645600138       -0.9576942823
 C         -0.7493765523       -4.1717214731       -1.1245224107
 C         -2.2456876709       -4.1379334728       -1.0487562022
 H         -2.8123947012       -4.3310370655       -1.9473414130
 H         -2.7200863413       -4.4993784426       -0.1479754074
 H         -0.2057865438       -4.5543665135       -0.2737075718
 H         -0.2861297174       -4.3909162831       -2.0746119039
 H         -1.5053460875       -2.1991473680       -1.8105383381
 O         -1.7457854879        0.1046349592       -1.4687233703
