  62
        -98.94717655
 C          1.6095651984        1.5683704458       -0.2480326262
 C          2.7704804560        1.2291690156        0.4938994976
 C          3.5523534887        0.0973874321       -0.0135231724
 C          3.1584044315       -0.5373388347       -1.1322299588
 C          3.8637817034       -1.6925721837       -1.7901356979
 C          3.5168792563       -3.0657066732       -1.1982574686
 C          4.0880612362       -3.3398038114        0.1932855306
 H          3.9413953395       -4.4026498154        0.3958401271
 H          5.1631773874       -3.1577127957        0.1852725666
 C          3.4348044271       -2.5256367464        1.3192308860
 H          3.2089778965       -3.1833281746        2.1614052935
 H          2.4851348149       -2.1124470650        0.9714238985
 C          4.3006882305       -1.3858585053        1.8563473508
 H          3.7317752548       -0.8557073101        2.6243157025
 H          5.1983518910       -1.7952237555        2.3250723684
 C          4.7274750978       -0.3642579687        0.7936646076
 H          5.1463652197        0.5071992946        1.3026669482
 H          5.4925187676       -0.7913255537        0.1455962866
 H          3.9078802539       -3.8218502728       -1.8830888723
 H          2.4306743700       -3.1722232537       -1.1726308949
 H          3.5618571816       -1.6847758081       -2.8399406023
 H          4.9418238391       -1.5365912173       -1.7399303813
 O          2.0503251193       -0.1692351276       -1.8270712461
 C          1.2343759986        0.8681333696       -1.3942417374
 O          0.2383947799        1.0552206137       -2.1193826528
 H         -1.6603922226        2.2258416113       -0.9629747209
 C         -1.6414708801        1.8478114390        0.0466026577
 C         -0.5171770757        2.0393616903        0.8348325928
 C         -0.5099195900        1.5149874420        2.1245703157
 C         -1.6006305971        0.8186823342        2.6114027025
 C         -2.7118839201        0.6079666362        1.8133486618
 C         -2.7209098865        1.1161764439        0.5214137929
 N         -3.8182143514        0.8452483460       -0.3184355980
 S         -4.2897033922       -0.7609346088       -0.3951870044
 O         -4.8179620563       -0.9479380099       -1.7286704276
 O         -5.2107642111       -1.0365067360        0.6807140402
 C         -2.8050673354       -1.7279500104       -0.1636693941
 C         -2.7652284853       -2.6751976230        0.8398656925
 C         -1.6096294374       -3.4178359127        1.0188120068
 C         -0.5152175410       -3.2006771287        0.1960132314
 C         -0.5726789120       -2.2482396892       -0.8091430298
 C         -1.7258805669       -1.5032265096       -0.9945525502
 H         -1.7712033482       -0.7496089926       -1.7650144953
 H          0.2749675740       -2.0622366942       -1.4506232167
 H          0.3868643439       -3.7754478119        0.3399274625
 H         -1.5628715177       -4.1596795799        1.7995973288
 H         -3.6364080304       -2.8067203951        1.4609218807
 H         -3.7076657308        1.2235522003       -1.2486822597
 H         -3.5651439484        0.0507620602        2.1652431203
 H         -1.5826759890        0.4246662288        3.6159656028
 H          0.3720142622        1.6465096826        2.7353909561
 C          0.7303125484        2.6874149023        0.2885292842
 H          1.2899927878        3.1207461991        1.1277690273
 C          0.4668800091        3.7720742806       -0.7335837940
 C         -0.1164702805        5.0756063671       -0.2788730341
 C          1.3125559682        5.0086994875       -0.7243638603
 H          1.5803589577        5.4558513389       -1.6700004574
 H          2.0858782742        5.0809609387        0.0262070807
 H         -0.8321447668        5.5720723132       -0.9162631960
 H         -0.3140722704        5.1905506044        0.7761662679
 H          0.1638768713        3.3927523462       -1.7015409882
 O          3.1351491499        1.8462722356        1.5288627227
