  62
        -98.94691249
 C          0.5381289646        1.7801806529       -0.6711491709
 C          1.6816379996        2.0377291422        0.1275756892
 C          2.8387139095        1.1583850605       -0.0747835920
 C          2.7637343135        0.1791081996       -0.9933022007
 C          3.8666104710       -0.7904516165       -1.3077809030
 C          3.7578384335       -2.0759701230       -0.4769824617
 C          3.5205810575       -1.8346527584        1.0139746421
 H          2.5348044528       -1.3837382390        1.1605732186
 H          3.4894202852       -2.8132704081        1.5000578636
 C          4.5905433322       -0.9660729430        1.6908813329
 H          5.4951135899       -0.9516182457        1.0809735594
 H          4.8512762769       -1.4221414045        2.6484169034
 C          4.1566439966        0.4706242651        1.9883877040
 H          4.8843282255        0.9089408612        2.6770251272
 H          3.1884046508        0.4591087487        2.4966971190
 C          4.0532460617        1.4026466658        0.7742394784
 H          3.9584411949        2.4270664589        1.1463339379
 H          4.9663418425        1.3357709669        0.1788111940
 H          4.6765581644       -2.6511117893       -0.6101400778
 H          2.9286581227       -2.6741521279       -0.8618827945
 H          4.8237274427       -0.3077148191       -1.1185509065
 H          3.8040808546       -1.0469022688       -2.3669091331
 O          1.6529547430       -0.0468768408       -1.7350420227
 C          0.5011840525        0.7142621642       -1.5707946865
 O         -0.4451180350        0.3323742003       -2.2857042774
 O          1.7345097253        2.9797882020        0.9654235885
 C         -0.6666937903        2.6706331833       -0.4238317425
 C         -1.5461362864        2.0874268430        0.6584983122
 C         -2.1149425802        2.8944134832        1.6372985166
 C         -2.8880089661        2.3413883448        2.6424833229
 C         -3.0789720574        0.9726485815        2.7122973161
 C         -2.5138119673        0.1589645896        1.7380686252
 C         -1.7855779928        0.7230005156        0.7021793309
 H         -1.3714162723        0.0805605145       -0.0580439586
 N         -2.6509970391       -1.2367972372        1.7732457494
 S         -1.3250885745       -2.1723952232        1.3463281708
 O         -1.5383395931       -3.4309559742        2.0343809151
 O         -0.0800513558       -1.5022608704        1.6444032577
 C         -1.4911378620       -2.4563801606       -0.4006351102
 C         -0.3435946830       -2.6474637830       -1.1413914869
 C         -0.4533333487       -2.9155725205       -2.4953281031
 C         -1.7064767845       -2.9913484848       -3.0806752468
 C         -2.8508643814       -2.8020548113       -2.3217691009
 C         -2.7473166497       -2.5347261240       -0.9665175827
 H         -3.6152661996       -2.3719881026       -0.3492186032
 H         -3.8236961730       -2.8549952411       -2.7839320602
 H         -1.7898465840       -3.1909899191       -4.1374501133
 H          0.4380632721       -3.0481035305       -3.0874732194
 H          0.6113030703       -2.5577175548       -0.6470460514
 H         -3.1220579475       -1.6030515087        2.5880039443
 H         -3.6505735474        0.5354542540        3.5167817820
 H         -3.3250222703        2.9787379658        3.3960701868
 H         -1.9319072085        3.9582860728        1.6194918666
 H         -0.2580037984        3.6163014477       -0.0401277862
 C         -1.4878415421        2.9705129383       -1.6624140072
 C         -2.2744874941        4.2435561360       -1.7336876534
 C         -1.0536379147        4.0680942367       -2.5850260445
 H         -1.1754416236        3.9230474503       -3.6475832157
 H         -0.1632275961        4.6195359664       -2.3196597166
 H         -3.2417913112        4.2221643950       -2.2111763047
 H         -2.2119015891        4.9228687610       -0.8974138148
 H         -1.9175855756        2.0851177746       -2.1120096270
