  62
        -98.94753960
 C         -1.3358653538       -1.6287546994       -0.5029312010
 C         -1.1892491825       -0.3182123709       -1.0230426752
 C         -2.3724327311        0.5510184931       -0.9173015801
 C         -3.5041103590        0.0752676046       -0.3697903525
 C         -4.7689263622        0.8601821991       -0.1768123636
 C         -4.8113883886        1.5264741420        1.2046441002
 C         -3.5417398623        2.3025526474        1.5552829426
 H         -2.7080811157        1.6049598732        1.6711480905
 H         -3.7028120708        2.7683865228        2.5302872739
 C         -3.1523708926        3.3787486783        0.5328336480
 H         -2.8712035272        4.2857116955        1.0726071149
 H         -4.0105350501        3.6257446984       -0.0940625468
 C         -1.9620579422        3.0017656948       -0.3516535204
 H         -1.1481880099        2.6365431451        0.2813498509
 H         -1.6149704920        3.9097550120       -0.8541557750
 C         -2.2414524443        1.9545148796       -1.4380058502
 H         -1.3841508930        1.9417869068       -2.1174543520
 H         -3.1292186536        2.2410189457       -2.0064054035
 H         -4.9577907836        0.7512029509        1.9602852387
 H         -5.6703765766        2.1995141126        1.2370946018
 H         -5.6132925316        0.1739843445       -0.2640518176
 H         -4.8440640551        1.6143454329       -0.9577217587
 O         -3.6143668758       -1.1908939633        0.1068952367
 C         -2.5365702076       -2.0574075988        0.0712580825
 O         -2.7727159181       -3.1803737743        0.5633345749
 O         -0.1430426862        0.1251976603       -1.5662319828
 C         -0.2172427196       -2.6614701928       -0.4923932967
 C          0.7094415872       -2.4167619167        0.6740518770
 C          0.8932470586       -3.3740887270        1.6647577853
 C          1.7309467272       -3.1212550490        2.7369989460
 C          2.3862087329       -1.9079473085        2.8492736066
 C          2.2065697498       -0.9444381995        1.8630607167
 C          1.3885556355       -1.2117275257        0.7764311606
 H          1.2473506718       -0.4586507790        0.0198227188
 N          2.8597330319        0.2943176161        1.9262779753
 S          2.0970802335        1.6660982194        1.3377240154
 O          2.7922367690        2.7632882747        1.9839283910
 O          0.6715922378        1.6221527965        1.5700566215
 C          2.4819341745        1.7178725611       -0.3998837913
 C          3.4988968933        0.9394862297       -0.9132050675
 C          3.7961535815        1.0351428250       -2.2632986988
 C          3.0817609259        1.9054573763       -3.0710067800
 C          2.0695778883        2.6864251320       -2.5371902254
 C          1.7666805079        2.5946724485       -1.1888498002
 H          0.9786907741        3.1765688519       -0.7390872888
 H          1.5096111469        3.3602870986       -3.1660981882
 H          3.3109643214        1.9721116727       -4.1231238891
 H          4.5808136354        0.4246776383       -2.6812062821
 H          4.0298224093        0.2620715070       -0.2649323534
 H          3.3677985015        0.4789191632        2.7785065182
 H          3.0269566328       -1.7043551767        3.6938253394
 H          1.8659207668       -3.8720226300        3.5009691824
 H          0.3605475343       -4.3116703123        1.5999522804
 H         -0.7095628005       -3.6305091740       -0.3330723781
 C          0.5607775853       -2.7255430900       -1.7927020272
 C          1.3215418307       -3.9736633267       -2.1206147508
 C          0.0827035958       -3.6263743039       -2.8895234126
 H          0.1826129673       -3.2907339658       -3.9106433938
 H         -0.8112311378       -4.2053416530       -2.7066556083
 H          2.2761214597       -3.8791479671       -2.6144904945
 H          1.2677934873       -4.7920854750       -1.4186062259
 H          0.9947129112       -1.7773677859       -2.0804821269
