  62
        -98.94105443
 C          1.7422510396        0.9771862807        0.2728643891
 C          2.1544192698       -0.3687754192        0.4360657694
 C          3.6014916298       -0.5738006491        0.6048643993
 C          4.4330059497        0.4814146310        0.6522150989
 C          5.9253150298        0.4294423012        0.8368022987
 C          6.7061324896        0.1819952009       -0.4611926214
 C          6.6111695996       -1.2394201293       -1.0173201109
 H          7.3717557395       -1.3304327194       -1.7953146710
 H          6.8618921598       -1.9534247990       -0.2321886308
 C          5.2448534396       -1.5944230696       -1.6205861006
 H          4.6829488795       -0.6780993797       -1.8161683408
 H          5.3888808695       -2.0912214898       -2.5827420305
 C          4.3917745598       -2.5224532894       -0.7554193702
 H          4.8838828999       -3.4933236793       -0.6637803800
 H          3.4343511498       -2.6786923996       -1.2598519201
 C          4.1037367000       -1.9851666490        0.6526070496
 H          3.3201367601       -2.6008992289        1.1013636799
 H          4.9987521000       -2.0514177087        1.2708660195
 H          6.3626031994        0.8922323207       -1.2168895115
 H          7.7568804296        0.3986225211       -0.2553605416
 H          6.2227034697        1.4009016914        1.2375303083
 H          6.1778068699       -0.3398659085        1.5670499589
 O          3.9891749096        1.7630068510        0.5571426785
 C          2.6468989695        2.0398596808        0.3535240586
 O          2.3846580794        3.2565098207        0.2758352883
 H         -1.6085241203       -0.5923715299       -0.5077380300
 C         -1.5320333002       -0.3536636196        0.5391538799
 C         -0.6053432502        0.5736966507        0.9866349495
 C         -0.4968670501        0.8023374711        2.3562750694
 C         -1.2880315599        0.1116044713        3.2527905798
 C         -2.2218532999       -0.8053082789        2.8019164302
 C         -2.3370103600       -1.0410464594        1.4378548203
 N         -3.2729935900       -1.9619926096        0.9480530407
 S         -4.0434984302       -1.6813296401       -0.5031626293
 O         -5.2894355202       -2.4113430302       -0.3958174689
 O         -3.2015772304       -2.0471652504       -1.6138623993
 C         -4.3687094604        0.0739717998       -0.5382797398
 C         -5.0422984803        0.6430260301        0.5243938601
 C         -5.2900652004        2.0058416901        0.5091501998
 C         -4.8655847007        2.7734760598       -0.5645381205
 C         -4.1993616908        2.1863810695       -1.6286809404
 C         -3.9462922006        0.8237490796       -1.6166003101
 H         -3.4260941007        0.3272338594       -2.4203924400
 H         -3.8723686409        2.7844180293       -2.4645583307
 H         -5.0558896608        3.8350578298       -0.5736278708
 H         -5.8104567404        2.4654671903        1.3337799397
 H         -5.3670226401        0.0199020803        1.3414627104
 H         -3.8856152999       -2.3680151495        1.6389550109
 H         -2.8430072797       -1.3455769988        3.4999309704
 H         -1.1842175298        0.2920714816        4.3121429997
 H          0.2307611899        1.5214685313        2.7079374691
 C          0.2864484296        1.3510183605        0.0513165592
 H          0.2210693795        2.4149147805        0.3333122389
 C         -0.1619241606        1.2587994600       -1.3995866807
 C          0.7910985892        1.5193829597       -2.5263677409
 C          0.2597686293        0.1374828798       -2.2985961405
 H         -0.4628346207       -0.2645727105       -2.9945433802
 H          0.9214715495       -0.6097704701       -1.8894053703
 H          1.8224951492        1.7193007199       -2.2739546611
 H          0.4363198090        2.0752831794       -3.3810512111
 H         -1.1734523907        1.6318834099       -1.5295589607
 O          1.3753844999       -1.3558987393        0.4459903198
