  62
        -98.94485927
 C          2.6489954208        0.3383436916       -0.0124368491
 C          2.4286814505        1.4437904715       -0.8669688591
 C          1.7389480899        2.5895573412       -0.2667256191
 C          1.3692552197        2.5417063210        1.0263782508
 C          0.6120438491        3.6091819206        1.7678137807
 C         -0.9066446008        3.5225502000        1.5562204305
 C         -1.3995320208        4.0144670399        0.1938589204
 H         -2.4813397108        4.1411411795        0.2719447802
 H         -0.9707427511        4.9951100901       -0.0167601595
 C         -1.0972902702        3.0545917901       -0.9657720896
 H         -1.9858661700        2.9519951898       -1.5944326398
 H         -0.8730107798        2.0647562302       -0.5588064196
 C          0.0457238798        3.4993819606       -1.8791392994
 H          0.2048137702        2.7233538607       -2.6326857394
 H         -0.2381028105        4.4182137205       -2.3975774594
 C          1.3796242796        3.7389746811       -1.1605337991
 H          2.1633783497        3.8278430215       -1.9171803290
 H          1.3384100791        4.6652318911       -0.5883674891
 H         -1.3813724612        4.1258867098        2.3337428704
 H         -1.2146555604        2.4831449999        1.7003827303
 H          0.8224132290        3.4608034307        2.8290584008
 H          0.9718863188        4.5959150608        1.4742842708
 O          1.6547321900        1.4854288111        1.8318280308
 C          2.2434298405        0.3394378713        1.3235143308
 O          2.3711288608       -0.5842217387        2.1509683108
 H          0.6527332514       -0.6163125592       -1.2794842495
 C          0.8082495717       -1.6028714891       -0.8585652596
 C          2.0905371818       -1.9869091686       -0.4847173494
 C          2.2654300222       -3.2586508486        0.0431004106
 C          1.1778573225       -4.0955003990        0.2355227604
 C         -0.1039143876       -3.6814548495       -0.0794086498
 C         -0.2813805480       -2.4248811896       -0.6391001898
 N         -1.6012902882       -1.9493451801       -0.8973721100
 S         -2.1771488587       -1.1815819604        0.5058111000
 O         -1.4226890692        0.0258673999        0.7641141702
 O         -2.2068852385       -2.1629842105        1.5600611899
 C         -3.8417222588       -0.7675911411        0.0178300997
 C         -4.1869260593        0.5510620988       -0.2036154303
 C         -5.4795438693        0.8457242083       -0.6093766505
 C         -6.3966905689       -0.1782393921       -0.7892328707
 C         -6.0337673984       -1.4981243219       -0.5636522407
 C         -4.7442730784       -1.7992729014       -0.1562994305
 H         -4.4176671980       -2.8071656013        0.0376460495
 H         -6.7501865381       -2.2913077722       -0.7041204709
 H         -7.4012079289        0.0540385876       -1.1059605409
 H         -5.7639213997        1.8710069282       -0.7832663905
 H         -3.4408081496        1.3141039191       -0.0484445001
 H         -1.5841722983       -1.2410662301       -1.6227891999
 H         -0.9631523674       -4.3005347399        0.1189498600
 H          1.3300762028       -5.0748173890        0.6633409103
 H          3.2512812823       -3.5860742782        0.3311191407
 C          3.1854438714       -0.9539548982       -0.6066013691
 H          3.3559604815       -0.7413874080       -1.6725504791
 C          4.4937114914       -1.3681028277        0.0280820711
 C          5.4670204819       -2.2115811772       -0.7389344188
 C          5.7684419713       -0.7668926671       -0.4807506287
 H          6.5399729311       -0.5177573669        0.2319817215
 H          5.6939474311       -0.0718391071       -1.3042736786
 H          5.1947919822       -2.5002506873       -1.7427968789
 H          6.0365245521       -2.9561615070       -0.2037388987
 H          4.4047690713       -1.5261296578        1.0968712011
 O          2.7699225107        1.4605789417       -2.0818395990
