  62
        -98.94370785
 C         -1.6864191440       -0.3297743179        0.7017027417
 C         -2.9346497130       -0.1541929688        1.3451565220
 C         -4.1147615778       -0.5490937789        0.5682637209
 C         -3.9600158226       -1.0573477788       -0.6680698086
 C         -5.0645293327       -1.5285279817       -1.5749411989
 C         -5.7246313076       -0.4070873515       -2.3887400110
 C         -6.6295316962        0.5305614697       -1.5885150448
 H         -7.3506794008       -0.0585838806       -1.0210841896
 H         -7.1919430389        1.1265078492       -2.3100863009
 C         -5.8797312402        1.4795978034       -0.6431616494
 H         -6.2803289110        2.4904680834       -0.7484223735
 H         -4.8263096996        1.5220056204       -0.9298899728
 C         -5.9754689987        1.1064622476        0.8363257621
 H         -7.0126407065        1.1890360689        1.1688343428
 H         -5.3809557562        1.8224953261        1.4096900446
 C         -5.4669059417       -0.3030437824        1.1667108438
 H         -6.1795878054       -1.0509097170        0.8198390698
 H         -5.3707226992       -0.3870606755        2.2520321344
 H         -6.3267230957       -0.8805066044       -3.1676992542
 H         -4.9417085543        0.1743364399       -2.8811082786
 H         -5.8226591087       -2.0497655735       -0.9898422720
 H         -4.6127890635       -2.2383907180       -2.2710322301
 O         -2.7407998461       -1.2232803696       -1.2455455222
 C         -1.5770329490       -0.8444118380       -0.5903554849
 O         -0.5369480338       -1.0219409988       -1.2506231597
 O         -3.0563612241        0.3107562811        2.5105257710
 C         -0.4195779000        0.0762070596        1.4335423128
 C          0.2830492211        1.1621251503        0.6577736824
 C         -0.4222135603        2.3206010450        0.3387031280
 C          0.1714127369        3.3278383755       -0.3956542009
 C          1.4812544692        3.2036201851       -0.8263030955
 C          2.1951650544        2.0542461571       -0.5109745745
 C          1.5963454838        1.0466291520        0.2341681625
 H          2.1668509235        0.1672788778        0.4762107021
 N          3.5058792293        1.8835702815       -0.9691511940
 S          4.6287273603        0.9781382783       -0.1345870478
 O          4.5419635068        1.1983464212        1.2904900606
 O          5.8924907723        1.3269993345       -0.7485260587
 C          4.2391251426       -0.7156427350       -0.5194058479
 C          3.8777761957       -1.0462490208       -1.8097510101
 C          3.5906519484       -2.3690829399       -2.1048424229
 C          3.6730564653       -3.3336605658       -1.1125148701
 C          4.0453782074       -2.9868266559        0.1769508379
 C          4.3340206347       -1.6656268412        0.4781758772
 H          4.6188172619       -1.3478070319        1.4689524670
 H          4.1080171741       -3.7390096982        0.9473690700
 H          3.4426757283       -4.3615463857       -1.3448232321
 H          3.2958819658       -2.6424416755       -3.1051893033
 H          3.8142697987       -0.2720059073       -2.5559102423
 H          3.9117176452        2.6699839991       -1.4527269494
 H          1.9443961427        3.9869631119       -1.4067198933
 H         -0.3877162615        4.2197275004       -0.6361527418
 H         -1.4467379301        2.4159749755        0.6723016056
 H         -0.7578998994        0.5018162245        2.3899258275
 C          0.4444490467       -1.1338858828        1.7168882957
 C          1.4084653554       -1.1151874351        2.8637901120
 C          0.1683712280       -1.9526615696        2.9408394583
 H          0.2655588837       -3.0257333587        2.8750643577
 H         -0.6325396205       -1.6254136285        3.5876547810
 H          2.3586635613       -1.6128562060        2.7457900907
 H          1.4576930208       -0.2169595136        3.4607526127
 H          0.7317361738       -1.6644445435        0.8156786812
