  62
        -98.93823146
 C         -1.2581290329       -1.4208168801        0.6574897516
 C         -2.1445605335       -1.2053559615       -0.4238409043
 C         -3.1521177722       -0.1407347963       -0.2395248349
 C         -3.1214956790        0.6152116663        0.8708577843
 C         -4.0785520337        1.6905598646        1.3263976390
 C         -4.7074664664        2.6103615962        0.2755503882
 C         -3.7560198916        3.0522689015       -0.8449257447
 H         -3.7927930398        4.1393052387       -0.9362549974
 H         -2.7317749972        2.7817154489       -0.5894913449
 C         -4.1098915303        2.4557744119       -2.2081498421
 H         -5.1901724789        2.5238655133       -2.3541913338
 H         -3.6361218622        3.0581236554       -2.9871959551
 C         -3.6683181137        1.0090143088       -2.4226578492
 H         -4.0443155818        0.6857914068       -3.3963725988
 H         -2.5771976425        0.9543909825       -2.4721305538
 C         -4.1451489265        0.0076604982       -1.3575856375
 H         -4.2086919907       -0.9768270345       -1.8291588385
 H         -5.1318157306        0.2725231737       -0.9854241434
 H         -5.5799941035        2.1278031808       -0.1615547256
 H         -5.0725410729        3.4887556791        0.8112053333
 H         -3.5134788174        2.2906291901        2.0444856412
 H         -4.8785470944        1.1994421814        1.8896286970
 O         -2.1630990302        0.4523739862        1.8287947119
 C         -1.2299964856       -0.5617131474        1.7578797601
 O         -0.4365034931       -0.5996680650        2.7201118785
 O         -2.1367869660       -1.8786520611       -1.4859872316
 C         -0.2545534109       -2.5649470291        0.6734204097
 C          0.9298477350       -2.1911500080       -0.1824158907
 C          1.0114957627       -2.4912683184       -1.5365414060
 C          2.1032446996       -2.0774187895       -2.2809569349
 C          3.1312267816       -1.3593709283       -1.6952580062
 C          3.0504583117       -1.0447739181       -0.3452173302
 C          1.9587410484       -1.4616538047        0.4010611122
 H          1.8876667010       -1.2000814178        1.4491901889
 N          4.0795177102       -0.2735834055        0.2473059444
 S          4.0897019080        1.3384726507       -0.2081269247
 O          4.3006621605        1.4131651371       -1.6305103025
 O          5.0802960040        1.9807898563        0.6240771228
 C          2.4605696634        1.9334660457        0.2066699018
 C          1.4034590714        1.6069769038       -0.6192573719
 C          0.1258299545        1.9953244685       -0.2523222783
 C         -0.0724133442        2.7060411666        0.9206680577
 C          0.9993889633        3.0251390063        1.7391706962
 C          2.2780465450        2.6269114005        1.3860841533
 H          3.1388005581        2.8481849742        1.9968625367
 H          0.8383929937        3.5721697018        2.6541421407
 H         -1.0688734913        3.0070549958        1.2039016931
 H         -0.7100023046        1.7260519888       -0.8804606445
 H          1.5882401993        1.0625686563       -1.5312860785
 H          4.0687631075       -0.3194420249        1.2575337134
 H          3.9785100386       -1.0147595848       -2.2652409291
 H          2.1539862042       -2.3165294857       -3.3324350652
 H          0.2052242636       -3.0270861524       -2.0100652388
 H          0.0984442969       -2.6294968321        1.7117162009
 C         -0.8767044326       -3.8928539345        0.2960316479
 C         -0.1342870175       -5.1557717787        0.6093048741
 C         -1.3703970856       -4.8021289600        1.3791407872
 H         -2.2701582591       -5.3721879694        1.2024778550
 H         -1.2580148512       -4.4724216005        2.4019964015
 H         -0.1826706285       -5.9711812657       -0.0958302075
 H          0.8182007124       -5.0636305829        1.1094546802
 H         -1.4536331741       -3.8592934126       -0.6182843782
