  62
        -98.94443645
 C          1.9465612913        1.0874819012       -0.2071650771
 C          2.4354395173       -0.0779640972       -0.8445595436
 C          3.8916792065       -0.2739407494       -0.7850097397
 C          4.6578427260        0.6463638338       -0.1713948790
 C          6.1445079060        0.5441087750        0.0066797898
 C          6.4989264141       -0.1453688896        1.3317418688
 C          5.7443275054       -1.4535783639        1.5687908997
 H          6.0964592248       -1.8646842302        2.5173584812
 H          4.6804037228       -1.2360750284        1.6876782058
 C          5.9241558697       -2.5002080289        0.4603909335
 H          6.8011442681       -2.2569123534       -0.1405822078
 H          6.1078421482       -3.4722206571        0.9230008944
 C          4.7117493014       -2.6666748300       -0.4578246123
 H          3.8120901406       -2.8182495530        0.1443425927
 H          4.8598966128       -3.5695334422       -1.0564334068
 C          4.4484734622       -1.5109371145       -1.4314319303
 H          5.3605966411       -1.2809025335       -1.9859927677
 H          3.6875329747       -1.8439445060       -2.1435650726
 H          7.5736326563       -0.3356122406        1.3449405713
 H          6.2645725639        0.5382249104        2.1509900002
 H          6.5677203113       -0.0105038180       -0.8284740079
 H          6.5607305193        1.5528897105        0.0095488800
 O          4.1523715991        1.7654310413        0.4076588239
 C          2.7886814788        2.0078632595        0.4165631700
 O          2.4548026031        3.0570120870        1.0033691420
 H         -1.6815174979       -0.0934455652       -1.1950106638
 C         -1.3490164893       -0.4138032915       -0.2225530194
 C         -0.2881081917        0.2145679242        0.4089360206
 C          0.1124861801       -0.2491701705        1.6603487317
 C         -0.5167943002       -1.3271084820        2.2501370369
 C         -1.5699182558       -1.9589103408        1.6111749712
 C         -1.9839400058       -1.4999567431        0.3674562626
 N         -3.0388090895       -2.1337324093       -0.3085753500
 S         -4.2335679736       -1.2334288812       -1.0524302631
 O         -5.3108372476       -2.1734674737       -1.2700245574
 O         -3.7165265380       -0.5752595240       -2.2240967941
 C         -4.7115340339       -0.0358212770        0.1791779806
 C         -4.2076258429        1.2472859351        0.1225615974
 C         -4.5377682965        2.1401825733        1.1301456890
 C         -5.3596655031        1.7365176635        2.1707437558
 C         -5.8622651852        0.4445451002        2.2103518475
 C         -5.5331156814       -0.4533227399        1.2084401422
 H         -5.9118621405       -1.4624974800        1.1961984818
 H         -6.5056462776        0.1357040666        3.0183923148
 H         -5.6119355732        2.4345146921        2.9534014278
 H         -4.1500401113        3.1460491214        1.0995031999
 H         -3.5753435034        1.5254765309       -0.7042247050
 H         -3.4369080272       -2.9196332701        0.1842803192
 H         -2.0573360021       -2.8081528127        2.0654151764
 H         -0.1874652616       -1.6797755888        3.2159796172
 H          0.9374215762        0.2436867162        2.1574671590
 C          0.4557399878        1.3778205317       -0.1999185543
 H          0.3210192037        2.2526405843        0.4529025252
 C         -0.0090739051        1.7375056778       -1.5952866907
 C         -1.1551658699        2.6825974221       -1.7885540790
 C          0.2412896993        3.1221568445       -2.1093550233
 H          0.5221080728        3.2446499517       -3.1446565339
 H          0.7252777748        3.8185175791       -1.4397820379
 H         -1.8405728975        2.5019691928       -2.6037776700
 H         -1.6146078199        3.0944968216       -0.9024693608
 H          0.1039298290        0.9205041763       -2.2992201508
 O          1.6985610705       -0.9127110599       -1.4316741486
