  62
        -98.93907791
 C         -0.8034386468       -1.3887497447        0.6529632682
 C         -1.1517004179       -0.6770161801       -0.5180886286
 C         -2.1771525399        0.3794099995       -0.3715791972
 C         -2.5968618223        0.7118813767        0.8621056408
 C         -3.6439202005        1.7182142431        1.2638318158
 C         -5.0730311511        1.2132677227        1.0167089334
 C         -5.2967353635        0.5886434439       -0.3574775574
 H         -4.6369738261       -0.2732897753       -0.4699032584
 H         -6.3238872355        0.2156661500       -0.3878802998
 C         -5.1062463808        1.5349062073       -1.5412589300
 H         -5.4323102364        0.9984940747       -2.4358469356
 H         -5.7616960901        2.3995805445       -1.4173393204
 C         -3.6770204966        2.0305492878       -1.7835381645
 H         -3.6421113095        2.4319467155       -2.8001384944
 H         -3.4254424390        2.8508182343       -1.1170579005
 C         -2.6104246963        0.9438113433       -1.7021818052
 H         -2.9238695849        0.0888250339       -2.3124232722
 H         -1.6903338774        1.3077971404       -2.1726511418
 H         -5.7613927477        2.0486507514        1.1570841580
 H         -5.3031688532        0.4570498438        1.7716364003
 H         -3.5165175277        1.8904618714        2.3352557473
 H         -3.4836741745        2.6624819658        0.7524201027
 O         -2.1019022682        0.1053866697        1.9817754627
 C         -1.2393696710       -0.9697848994        1.9109582835
 O         -0.9250998120       -1.4513306154        3.0191920349
 H          1.9380750425       -0.7258835532        1.0569431544
 C          2.1635073960       -1.2718574428        0.1517490559
 C          1.3219291357       -2.3024205626       -0.2494912932
 C          1.6340034079       -3.0077307451       -1.4040576943
 C          2.7579736073       -2.6774935098       -2.1401498978
 C          3.5897723131       -1.6472218505       -1.7430021108
 C          3.2890958976       -0.9398900169       -0.5837590665
 N          4.1320397381        0.0883881712       -0.1415205808
 S          3.5886906795        1.3342455473        0.8126178653
 O          4.6335759128        2.3318956014        0.7101953586
 O          3.3045902335        0.8639580572        2.1458686829
 C          2.1111853009        1.9852548952        0.0555926388
 C          2.1460419867        2.3281184285       -1.2814017967
 C          1.0387961007        2.9382610823       -1.8463356679
 C         -0.0743312616        3.2089519751       -1.0657989285
 C         -0.0974492659        2.8514237410        0.2727910405
 C          1.0026114941        2.2281601508        0.8391180067
 H          1.0193677049        1.9287040513        1.8761397533
 H         -0.9621017615        3.0571161476        0.8827955587
 H         -0.9271628157        3.7051609471       -1.5012453000
 H          1.0492395942        3.2079919455       -2.8901818114
 H          3.0334830953        2.1270382211       -1.8588050372
 H          4.8599410450        0.3681852461       -0.7808530008
 H          4.4655168089       -1.3903946101       -2.3188618844
 H          2.9865736149       -3.2270500683       -3.0405993220
 H          0.9847571386       -3.7986754232       -1.7409949938
 C          0.1209752333       -2.5923777821        0.6150842043
 H          0.4798802378       -2.7071498699        1.6518950149
 C         -0.5818087926       -3.8928682691        0.2515320222
 C         -2.0204371038       -4.1155546065        0.6089177220
 C         -1.6186463312       -3.9727248910       -0.8267616041
 H         -1.6395320491       -4.8530032022       -1.4524505463
 H         -1.8712756247       -3.0618528695       -1.3454798781
 H         -2.3144693681       -5.0897762546        0.9696854006
 H         -2.5501315823       -3.2993568587        1.0790478446
 H          0.0760948304       -4.7496957370        0.3606921043
 O         -0.6632408818       -0.9112306878       -1.6526233680
