  62
        -98.93807489
 C          1.3480926560        1.6305243979        0.1829702646
 C          2.3564618441        1.1061955143        1.0272105635
 C          3.1317984328       -0.0335675797        0.5101242313
 C          2.8302872573       -0.5422214514       -0.6991571378
 C          3.4863243755       -1.6509769937       -1.4944462566
 C          4.3649777345       -2.6928334986       -0.8052970351
 C          3.6417919207       -3.5813378028        0.2053903079
 H          2.9370709439       -4.2224377878       -0.3302683921
 H          4.3834935300       -4.2299019520        0.6770593133
 C          2.8666655930       -2.8440882706        1.2951484712
 H          2.0329203694       -2.2967553881        0.8496378240
 H          2.4370413695       -3.5939288474        1.9653900530
 C          3.6944848162       -1.8808397239        2.1454697431
 H          4.5647140300       -2.4014275965        2.5497457346
 H          3.0715561362       -1.5699463629        2.9887305478
 C          4.1722533936       -0.6029121185        1.4301247794
 H          5.1048995512       -0.7710100348        0.8964529451
 H          4.3633081965        0.1584671784        2.1919492648
 H          5.2230332194       -2.2174830264       -0.3391123321
 H          4.7541442671       -3.3411384171       -1.5951659811
 H          2.6718589665       -2.1607615868       -2.0160961488
 H          4.0859652564       -1.1536725458       -2.2650196428
 O          1.8242796440       -0.0288242297       -1.4614220584
 C          1.0436999546        1.0396228594       -1.0443673001
 O          0.1427111205        1.3449019119       -1.8436236277
 O          2.6007876359        1.5703050355        2.1741910058
 C          0.5067212785        2.7794928263        0.7113145050
 C         -0.9509680377        2.4239896976        0.5657953428
 C         -1.8596868178        3.1516765739       -0.1890673193
 C         -3.1699247942        2.7209062989       -0.3137863607
 C         -3.6017058730        1.5641628766        0.3084644842
 C         -2.6996915063        0.8310002345        1.0692376170
 C         -1.3916454806        1.2666479272        1.1975055508
 H         -0.6880735296        0.6886264813        1.7852316335
 N         -3.1223930924       -0.3595648166        1.7008400153
 S         -3.6434737479       -1.5923107064        0.6929601933
 O         -4.8895519723       -1.2018027286        0.0847252838
 O         -3.6825056923       -2.7729573072        1.5267145638
 C         -2.3794980075       -1.7638733760       -0.5522029279
 C         -2.4674022149       -1.0244670827       -1.7140519215
 C         -1.4638762042       -1.1448075444       -2.6610636887
 C         -0.3971191499       -1.9986843599       -2.4314191329
 C         -0.3193731223       -2.7292464072       -1.2559243039
 C         -1.3160984472       -2.6079736991       -0.3019195721
 H         -1.2961110131       -3.1652575805        0.6214465243
 H          0.5141880241       -3.3903160274       -1.0763532169
 H          0.3806316072       -2.0854169146       -3.1739520348
 H         -1.5095134592       -0.5632330261       -3.5669116054
 H         -3.3140220089       -0.3740925675       -1.8604978991
 H         -2.4334646324       -0.7293232918        2.3412197589
 H         -4.6129598376        1.2054166289        0.2036480603
 H         -3.8641164466        3.2920201803       -0.9115153513
 H         -1.5365268862        4.0413746982       -0.7037420711
 H          0.7412006205        2.8146147295        1.7887111902
 C          0.8635130335        4.1467727634        0.1510645790
 C          2.2581128278        4.4470829106       -0.3088401759
 C          1.1395503840        4.3805717697       -1.3027826646
 H          0.7950153281        5.3042649140       -1.7446915018
 H          1.0857959633        3.5323096421       -1.9659688918
 H          2.6820730301        5.4110236171       -0.0703002388
 H          2.9743214714        3.6383030787       -0.2906910346
 H          0.3526790376        4.9443230774        0.6823263994
