  62
        -98.93859047
 C         -2.1600988990       -1.4786787110        0.1840416417
 C         -2.0059437015       -0.4418005613       -0.7644357563
 C         -3.0642369582        0.5865986848       -0.7898654023
 C         -4.0782538905        0.5190022132        0.0925712492
 C         -5.3069211530        1.3864277292        0.2721478855
 C         -5.4150575803        2.7453342999       -0.4146399166
 C         -4.4420422974        3.8030549546        0.1049832156
 H         -4.5385734443        4.6925660778       -0.5214097752
 H         -4.7382640895        4.0779640793        1.1204198703
 C         -2.9751854486        3.3828546596        0.1505727521
 H         -2.3994725830        4.2252523996        0.5430778723
 H         -2.8516248910        2.5546050575        0.8512140224
 C         -2.3671422346        2.9897129285       -1.1938196754
 H         -2.5139001319        3.7957606935       -1.9154577125
 H         -1.2921141252        2.8645318157       -1.0426981405
 C         -2.8944571794        1.6807222840       -1.8046841992
 H         -3.8206140928        1.8427710887       -2.3511014945
 H         -2.1507101510        1.3203431100       -2.5215565965
 H         -6.4288947918        3.1087539856       -0.2256259737
 H         -5.3183117907        2.6329715835       -1.4905423288
 H         -6.1529270838        0.7686161222       -0.0491715067
 H         -5.4198579427        1.5217765996        1.3525518704
 O         -4.1610633303       -0.4833568742        1.0166068733
 C         -3.2244420346       -1.4963903243        1.0856558784
 O         -3.4435194757       -2.3393918401        1.9783889871
 H          1.0804218963       -2.1797913216       -1.2675907267
 C          1.2216302562       -1.9149186298       -0.2323450231
 C          0.1871006135       -2.0832488359        0.6723503698
 C          0.3909975968       -1.7037921160        1.9968656443
 C          1.6076140952       -1.1914946353        2.4051970786
 C          2.6435353981       -1.0312775636        1.5000736445
 C          2.4399727818       -1.3818750215        0.1724906186
 N          3.4669784580       -1.2100792385       -0.7653598444
 S          4.5688068395        0.0281987896       -0.6032683502
 O          5.0590444181        0.2681434199       -1.9428048458
 O          5.5692085725       -0.3385666757        0.3697272306
 C          3.6774860890        1.4601837682       -0.0154332788
 C          2.4695270828        1.7974702225       -0.5926166901
 C          1.8135248408        2.9339348917       -0.1474072465
 C          2.3683993849        3.7105684321        0.8575370513
 C          3.5822783675        3.3582489718        1.4263204267
 C          4.2439959611        2.2234146099        0.9863921674
 H          5.1869402176        1.9085539268        1.4036340521
 H          4.0134949449        3.9616985553        2.2087778950
 H          1.8499122281        4.5929762205        1.1978157807
 H          0.8673323746        3.2056053370       -0.5882184144
 H          2.0417457416        1.1788849651       -1.3658061496
 H          3.1865385371       -1.3486534579       -1.7243753084
 H          3.6034434074       -0.6499072887        1.8085511654
 H          1.7551112078       -0.9139788254        3.4377950603
 H         -0.4216297004       -1.8186386827        2.7012298212
 C         -1.1625455726       -2.6223081620        0.2672506114
 H         -1.5216377027       -3.2728660965        1.0761298954
 C         -1.1447407218       -3.4174605183       -1.0219866673
 C         -0.5434209570       -4.7896907810       -1.0346283372
 C         -2.0280396696       -4.6203005220       -1.1493391098
 H         -2.4982806870       -4.8158852747       -2.1015014946
 H         -2.6414736424       -4.8812021348       -0.2992107521
 H          0.0064672056       -5.1060837516       -1.9079729501
 H         -0.1461863562       -5.1674228452       -0.1046330597
 H         -1.0240553365       -2.8006454078       -1.9043373286
 O         -1.0435499500       -0.3740884197       -1.5733051336
