  62
        -98.94441291
 C         -1.8366535725       -0.0099598120       -0.4148566270
 C         -2.9748409019        0.4074615661       -1.1454136431
 C         -4.2680619226       -0.0946047472       -0.6632452888
 C         -4.2976187296       -0.9176625826        0.4009857776
 C         -5.5480053988       -1.4652199650        1.0249928390
 C         -6.0581943972       -0.5481924767        2.1453089290
 C         -6.1492241896        0.9242273616        1.7445657370
 H         -6.5490753770        1.4700831807        2.6018952768
 H         -5.1421780208        1.3062012681        1.5619666534
 C         -7.0247324339        1.1940422838        0.5128240156
 H         -7.6644557723        2.0544432109        0.7201976284
 H         -7.6789891593        0.3409911481        0.3294773985
 C         -6.2435277145        1.5170159306       -0.7622097779
 H         -5.5191425578        2.3090809145       -0.5567014698
 H         -6.9481781676        1.9022464932       -1.5039569787
 C         -5.5004137624        0.3396595989       -1.4060465694
 H         -6.1861565956       -0.4993409131       -1.5401403439
 H         -5.1561521505        0.6637395056       -2.3925412760
 H         -7.0409270542       -0.9031341657        2.4611076772
 H         -5.3776926482       -0.6302349051        2.9960928566
 H         -6.3114890157       -1.5779492585        0.2576890549
 H         -5.3205322520       -2.4461733492        1.4457375017
 O         -3.1812033217       -1.3133382691        1.0652080849
 C         -1.9242319300       -0.8645454055        0.6838640857
 O         -0.9904518771       -1.2951192858        1.3870409400
 H          2.1216142872        0.0553190761        0.0100115622
 C          1.7441585230       -0.7354714143       -0.6158230477
 C          0.4535145423       -0.6757283439       -1.1182537603
 C          0.0019203805       -1.7188318474       -1.9232622020
 C          0.8102120804       -2.8059446887       -2.1897942145
 C          2.0881910100       -2.8751700449       -1.6635996336
 C          2.5564194942       -1.8320487641       -0.8740070466
 N          3.8659016361       -1.8561698952       -0.3814625611
 S          4.3453471143       -1.0314639300        0.9860500054
 O          5.6425098756       -1.5974337662        1.2949457417
 O          3.3674904020       -1.0866121744        2.0465865666
 C          4.5723096498        0.6485490227        0.4391973459
 C          4.3029329408        1.6752876343        1.3222156439
 C          4.5258154993        2.9834614411        0.9208802298
 C          5.0106463332        3.2411927060       -0.3519853412
 C          5.2766357699        2.1988680534       -1.2266217108
 C          5.0615777407        0.8887542370       -0.8295161963
 H          5.2584384796        0.0567649558       -1.4844518342
 H          5.6519245387        2.4029185672       -2.2164346235
 H          5.1797810118        4.2599378862       -0.6629719941
 H          4.3197203792        3.7945465694        1.6013852128
 H          3.9136431288        1.4300314656        2.2980095540
 H          4.3673359910       -2.7220234520       -0.5088632603
 H          2.7175220466       -3.7293341728       -1.8614195002
 H          0.4419357200       -3.6112787891       -2.8075283352
 H         -1.0000188095       -1.6697007984       -2.3277203756
 C         -0.4686974577        0.4859005219       -0.8463829027
 H         -0.6397530041        1.0177000628       -1.7947034571
 C          0.0791365177        1.4692905392        0.1665914052
 C          0.9907420655        2.5741264304       -0.2748667349
 C         -0.4152623725        2.8835633386        0.1405560291
 H         -0.5786796304        3.3895256024        1.0802785893
 H         -1.1322708287        3.1416075719       -0.6251114893
 H          1.2326563327        2.6300621281       -1.3252382923
 H          1.7977732292        2.8685868593        0.3786581636
 H          0.2522887695        1.0151649624        1.1370187885
 O         -2.9104510231        1.1579125397       -2.1560353011
