  62
        -98.94177145
 C          1.1224887720        1.9546632846       -0.1268318919
 C          1.2909151258        0.8394182251       -0.9843349218
 C          2.5932320788        0.1572447407       -0.8989549132
 C          3.4917698682        0.5488330148        0.0217666957
 C          4.8179696213       -0.1098835195        0.2647789744
 C          4.6997375773       -1.2346990398        1.3028723147
 C          3.5604373112       -2.2155102247        1.0253059663
 H          3.5944588753       -2.9785122244        1.8052760364
 H          2.6063272390       -1.6933279188        1.1227004372
 C          3.6249547825       -2.8874984148       -0.3528538937
 H          4.6280069215       -2.7857821306       -0.7687976148
 H          3.4298037972       -3.9549086356       -0.2356037832
 C          2.6040951390       -2.3575534493       -1.3608383226
 H          1.6046980196       -2.3770704035       -0.9209602215
 H          2.5952482009       -3.0293626796       -2.2233542025
 C          2.8610295224       -0.9419303884       -1.8889322132
 H          3.8815159316       -0.8684128641       -2.2716102844
 H          2.1698629607       -0.7712655815       -2.7198853625
 H          5.6481391396       -1.7741176757        1.3341564438
 H          4.5329520365       -0.7831634003        2.2834204648
 H          5.1969538119       -0.5071973581       -0.6749341760
 H          5.5132727085        0.6447918035        0.6360922434
 O          3.2646915748        1.5746924040        0.8805855958
 C          2.1012813915        2.3189175690        0.8039403469
 O          2.0525914584        3.2708336989        1.6087488568
 H         -1.6527502132        0.6727626926       -0.7197069184
 C         -1.9436505043        1.1652908915        0.1948285418
 C         -1.2483027585        2.2842813246        0.6345388208
 C         -1.6276829497        2.8868611333        1.8294586511
 C         -2.6887392068        2.3898556889        2.5639794724
 C         -3.3894638025        1.2842848158        2.1193166335
 C         -3.0120452513        0.6673841071        0.9294217032
 N         -3.7273005370       -0.4477562460        0.4791357042
 S         -3.2113865234       -1.5803800741       -0.6160301661
 O         -2.9345440675       -0.9762700532       -1.8933981865
 O         -4.2747395492       -2.5652198786       -0.6109839647
 C         -1.7591999692       -2.3851273177        0.0481713324
 C         -1.2905407254       -3.4643626459       -0.6760974979
 C         -0.2408828617       -4.2149578213       -0.1730547589
 C          0.3255405283       -3.8752875286        1.0462237503
 C         -0.1454045756       -2.7830397904        1.7554941806
 C         -1.2010855694       -2.0317066150        1.2591695017
 H         -1.5728098924       -1.1806213565        1.8066902919
 H          0.3007042244       -2.5111231383        2.6991736901
 H          1.1408255712       -4.4594581650        1.4418187195
 H          0.1312183213       -5.0591427998       -0.7308445792
 H         -1.7631654955       -3.6957649681       -1.6173007473
 H         -4.4188873047       -0.8178531388        1.1125613451
 H         -4.2228365502        0.8964461223        2.6847752945
 H         -2.9739230477        2.8673222079        3.4889252127
 H         -1.0740829230        3.7442437857        2.1833979303
 C         -0.1013449819        2.8581822693       -0.1621996606
 H          0.2122953147        3.7850291108        0.3379714188
 C         -0.5386567350        3.2088915772       -1.5710029002
 C         -1.3257920806        4.4642513437       -1.7907867696
 C          0.0944508392        4.3770716397       -2.2620030112
 H          0.2859214283        4.3064876703       -3.3222552214
 H          0.8465633574        4.9313714631       -1.7189341522
 H         -2.1144403314        4.4538945902       -2.5275109287
 H         -1.5357626423        5.0811193730       -0.9298546795
 H         -0.7858537820        2.3476705260       -2.1777772997
 O          0.4239586466        0.4222568512       -1.7968623907
