  62
        -98.94368335
 C         -1.7878496697       -0.9152888102        0.7839758490
 C         -1.9789927897       -0.3544525694       -0.5020120206
 C         -3.3722708098       -0.2821697593       -0.9598666906
 C         -4.3592212797       -0.7649166199       -0.1833356709
 C         -5.8248296897       -0.7819237299       -0.5238520709
 C         -6.5537689899        0.5301275598       -0.2029497200
 C         -6.2299572800        1.6987564305       -1.1346960193
 H         -6.3665875700        1.3848490212       -2.1699778995
 H         -6.9634719301        2.4818413902       -0.9324951787
 C         -4.8217184601        2.2826468805       -0.9532766989
 H         -4.8808804102        3.3729032705       -0.9204446281
 H         -4.4124127900        1.9567786999        0.0058127709
 C         -3.8350515000        1.9151975714       -2.0617360491
 H         -4.1653723901        2.3540892420       -3.0058376688
 H         -2.8623071401        2.3456905614       -1.8103025888
 C         -3.6461277498        0.4058671816       -2.2628265201
 H         -2.7779971798        0.2519356521       -2.9079636002
 H         -4.5236272598       -0.0231609382       -2.7458458904
 H         -7.6261481098        0.3306994897       -0.2641723202
 H         -6.3272219899        0.8121983291        0.8279806502
 H         -5.9535312697       -1.0225509492       -1.5793977611
 H         -6.2736377796       -1.5794229603        0.0722339085
 O         -4.1277336796       -1.3264204807        1.0339350387
 C         -2.8458992896       -1.3904732009        1.5572848187
 O         -2.7806938595       -1.8850758417        2.7016711683
 O         -1.0411983798        0.0626343612       -1.2286870004
 C         -0.3872851296       -1.0040827905        1.3615751789
 C          0.2474075802        0.3651604696        1.3837043198
 C         -0.4788940400        1.4400214892        1.8905182406
 C          0.0626755399        2.7101067892        1.9113519714
 C          1.3419991098        2.9358996897        1.4340111316
 C          2.0799140900        1.8693116101        0.9355796008
 C          1.5328468601        0.5928464201        0.9201937800
 H          2.1228050702       -0.2237572796        0.5417702394
 N          3.3593299900        2.0763506007        0.4102979510
 S          4.5241164401        0.8865476308        0.3844130802
 O          4.5492650102        0.1314788900        1.6157118197
 O          5.7447201000        1.5915847312        0.0549033706
 C          4.0744640802       -0.1720487683       -0.9750596405
 C          4.3181833404       -1.5271802984       -0.8688491215
 C          3.9893653905       -2.3542869677       -1.9309977320
 C          3.4266242604       -1.8135234570       -3.0766339316
 C          3.1940283603       -0.4499787070       -3.1698754607
 C          3.5227269002        0.3826387924       -2.1122924102
 H          3.3453929800        1.4443400924       -2.1516357795
 H          2.7510249202       -0.0336432864       -4.0602129804
 H          3.1651804805       -2.4589923965       -3.9003808521
 H          4.1691875306       -3.4154238477       -1.8605357527
 H          4.7474621705       -1.9056369589        0.0455703283
 H          3.7376544898        3.0056463006        0.5094450516
 H          1.7629738297        3.9296689098        1.4421995222
 H         -0.5151153602        3.5343302189        2.3022906620
 H         -1.4801106799        1.2651090388        2.2615013504
 H         -0.5032429296       -1.3451138112        2.4010832887
 C          0.4203548305       -2.0331800298        0.5975600082
 C          1.5217636106       -2.7885915402        1.2761838377
 C          0.2404508707       -3.4831657401        0.9279930972
 H          0.2448604808       -4.2004789395        0.1213671868
 H         -0.4457314493       -3.7273112207        1.7261789371
 H          2.4062862406       -3.0290913097        0.7062854175
 H          1.7171361806       -2.5656109108        2.3144316779
 H          0.5485084004       -1.7697100791       -0.4464665016
