  62
        -98.94469761
 C         -2.0348352506       -1.1187723405       -0.3246365805
 C         -3.1175060706       -1.1944419709        0.5920352594
 C         -4.3473481505       -0.4881751207        0.2149079897
 C         -4.3917915805        0.1683426998       -0.9582861200
 C         -5.5570606204        0.9781421101       -1.4461020397
 C         -5.4350655504        2.4451277499       -1.0103720491
 C         -5.1199783004        2.6250990492        0.4748139010
 H         -4.1207311205        2.2326003691        0.6782391808
 H         -5.0877118904        3.6988781591        0.6721606114
 C         -6.1280180305        1.9610120289        1.4232724707
 H         -7.0552665805        1.7498773691        0.8893522306
 H         -6.3681731405        2.6626275485        2.2248850610
 C         -5.6234992105        0.6795402186        2.0893984401
 H         -4.6478889806        0.8641901084        2.5463128702
 H         -6.3171586406        0.4187401783        2.8931401800
 C         -5.5030842606       -0.5449301910        1.1734985696
 H         -5.3239592106       -1.4179054013        1.8078508493
 H         -6.4417543406       -0.6967350608        0.6367748995
 H         -6.3698391504        2.9551996500       -1.2501632489
 H         -4.6348201304        2.9132025201       -1.5885055789
 H         -5.5761193604        0.9326389205       -2.5363172097
 H         -6.4786718805        0.5486874499       -1.0580855299
 O         -3.3461414205        0.2043640901       -1.8197720800
 C         -2.1418161105       -0.4203079900       -1.5271828302
 O         -1.2823384205       -0.2727280697       -2.4199319901
 H          0.6045882195        0.0857097797       -1.2717671499
 C          0.8724657195        0.0631885793       -0.2260769999
 C          0.2591249694       -0.8553783910        0.6144638897
 C          0.5999111394       -0.8544096216        1.9622076097
 C          1.5216116494        0.0521054282        2.4571466401
 C          2.1242274795        0.9720179985        1.6185618105
 C          1.7919099495        0.9764564391        0.2693530205
 N          2.4054614896        1.9013890294       -0.5923069391
 S          4.0652476996        2.0774063093       -0.4723224690
 O          4.3761607796        3.0043130588        0.5881508514
 O          4.5096005196        2.4635508298       -1.7932530489
 C          4.6789258395        0.4556226791       -0.0488242997
 C          5.3824600695        0.2723708086        1.1240407403
 C          5.8200617094       -1.0009525716        1.4517596297
 C          5.5436388794       -2.0642198112        0.6068247293
 C          4.8392233494       -1.8629627007       -0.5704075406
 C          4.4010444995       -0.5921265405       -0.9043785101
 H          3.8522418095       -0.4046687901       -1.8135676401
 H          4.6249222394       -2.6911769004       -1.2265404410
 H          5.8784141093       -3.0563478113        0.8653523289
 H          6.3697104294       -1.1595112920        2.3655144597
 H          5.5701695095        1.1266214583        1.7539944606
 H          2.1063928696        1.8198488498       -1.5529807892
 H          2.8352610295        1.6937887783        1.9870491808
 H          1.7721750994        0.0440929877        3.5067930301
 H          0.1227992294       -1.5607991619        2.6256640494
 C         -0.7552725006       -1.8358941608        0.0757509692
 H         -1.0489556806       -2.4978543911        0.9011761289
 C         -0.1707981706       -2.6866807003       -1.0347745611
 C          0.7829631994       -3.7867252805       -0.6813999016
 C         -0.5981290806       -4.1169948003       -1.1605574517
 H         -0.7189100406       -4.5326385298       -2.1497572519
 H         -1.3134448707       -4.4899926005       -0.4420698519
 H          1.0065036693       -3.9375376110        0.3635926184
 H          1.6136273594       -3.9787772403       -1.3425902616
 H          0.0041990895       -2.1415100999       -1.9528032509
 O         -3.0565743806       -1.8324000713        1.6765127592
