  62
        -98.95000756
 C         -1.9135728223       -1.0067262369        0.0375964898
 C         -1.3714054240       -1.8225966574       -0.9858031107
 C         -0.3213993757       -2.7603540996       -0.5703210513
 C          0.0354760243       -2.8329788910        0.7249487286
 C          1.0478572625       -3.7763953033        1.3164662380
 C          2.5021437534       -3.2976961360        1.2112173281
 C          3.1045902932       -3.3611751165       -0.1923964020
 H          4.1814736334       -3.2155903886       -0.0888440920
 H          2.9486124312       -4.3550961960       -0.6131872025
 C          2.5566338151       -2.3005138349       -1.1562609914
 H          2.0678497567       -1.5040472243       -0.5909229809
 H          3.3799415660       -1.8285392863       -1.6982251612
 C          1.5761587040       -2.8249887725       -2.2054081515
 H          1.2156375056       -1.9642709415       -2.7760690211
 H          2.0969842326       -3.4937331232       -2.8951754419
 C          0.3620255126       -3.5675040704       -1.6314108718
 H          0.6672150008       -4.5374518112       -1.2377904723
 H         -0.3546645178       -3.7271964186       -2.4411747818
 H          2.5653602855       -2.2724973163        1.5829840686
 H          3.1006856523       -3.9313329075        1.8694918577
 H          0.7946242624       -3.8766584133        2.3740729080
 H          0.9522567606       -4.7541558428        0.8431144876
 O         -0.5308648941       -2.0528300904        1.6827722591
 C         -1.4819850323       -1.0916691884        1.3609802397
 O         -1.8551407608       -0.4039177081        2.3291941301
 O         -1.7553189140       -1.7751569861       -2.1855417206
 C         -2.9461800303        0.0458102653       -0.3307937996
 C         -2.3403066476        1.4102179740       -0.1047839190
 C         -2.8742395656        2.3660327146        0.7486510916
 C         -2.2223457933        3.5727306333        0.9378413921
 C         -1.0268341228        3.8430718113        0.2981780421
 C         -0.4880479248        2.8970705707       -0.5682275484
 C         -1.1588889271        1.7026932521       -0.7772622490
 H         -0.7451031286        0.9776221216       -1.4636256594
 N          0.7177068057        3.1508592487       -1.2446327184
 S          1.9144693634        1.9924109564       -1.3745936492
 O          3.0359684147        2.7034498845       -1.9484877789
 O          1.4302471011        0.8587013777       -2.1163811597
 C          2.3119244827        1.5287853448        0.3010892206
 C          3.4341912238        2.0711186823        0.8966789607
 C          3.7229703933        1.7420431111        2.2111483305
 C          2.8812651617        0.8908005224        2.9114852702
 C          1.7546218306        0.3592962849        2.3029626700
 C          1.4684893711        0.6762531761        0.9843493902
 H          0.5990062503        0.2718724980        0.4891460401
 H          1.0842722994       -0.2940389141        2.8406621898
 H          3.1009942114        0.6374832515        3.9366156400
 H          4.5994658242        2.1515724992        2.6868660006
 H          4.0594918150        2.7280155714        0.3140538610
 H          1.1252951274        4.0520281978       -1.0408095580
 H         -0.5133028510        4.7783473602        0.4614027025
 H         -2.6452463518        4.3078863138        1.6054374025
 H         -3.7936158160        2.1639833162        1.2723409316
 H         -3.1140618006       -0.0780164238       -1.4109174096
 C         -4.2527945206       -0.1799614625        0.3974670004
 C         -5.5268691196        0.3688416802       -0.1695599591
 C         -5.2669039225       -1.1064827802       -0.2004983099
 H         -5.8332879436       -1.7456876095        0.4599972098
 H         -5.0239310035       -1.5652135702       -1.1480565402
 H         -6.2766713688        0.7420920914        0.5112857311
 H         -5.4648326287        0.9136039106       -1.0995575189
 H         -4.1362702605       -0.1978729333        1.4747583304
