  62
        -98.93690524
 C         -0.8308211737       -1.4060819484       -0.5216036320
 C         -1.8298386677       -1.5982034174        0.4639634068
 C         -2.8720180093       -0.5624730170        0.5928398036
 C         -2.8180681653        0.5064999238       -0.2228686289
 C         -3.7883543500        1.6531667896       -0.3277031704
 C         -5.0937812363        1.2661717580       -1.0416448793
 C         -5.6948187044       -0.0689906653       -0.6113166354
 H         -4.9652054098       -0.8625656011       -0.7822629454
 H         -6.5515752013       -0.2719182669       -1.2595090968
 C         -6.1789766442       -0.1273809555        0.8354188281
 H         -6.6716480288       -1.0933134512        0.9736687716
 H         -6.9276479921        0.6517691636        0.9951490927
 C         -5.0949686582        0.0091837834        1.9068151701
 H         -5.5360502519       -0.3036857162        2.8577058350
 H         -4.7939335852        1.0455345009        2.0321902517
 C         -3.8690493362       -0.8706253208        1.6837951587
 H         -4.1932642734       -1.9041893549        1.5168228229
 H         -3.2861460439       -0.9006482934        2.6122202418
 H         -4.8879014782        1.2067426620       -2.1131848356
 H         -5.8225404311        2.0628160944       -0.8824466343
 H         -3.2917258433        2.4259161994       -0.9170033866
 H         -3.9930923654        2.0616400915        0.6572680986
 O         -1.8293874036        0.6605163851       -1.1468575552
 C         -0.8099398567       -0.2627395019       -1.3211934600
 O          0.0077457504        0.0611213271       -2.2009259352
 O         -1.8621916008       -2.6158441462        1.2089135473
 C          0.2303679853       -2.4866808020       -0.6214618796
 C          1.3550858551       -2.2220991960        0.3467786423
 C          1.8643298021       -3.2388481504        1.1463213656
 C          2.9014753389       -2.9864904825        2.0265102429
 C          3.4523690398       -1.7213288703        2.1194666799
 C          2.9440873090       -0.6951087133        1.3301680274
 C          1.8972456298       -0.9497817601        0.4563481972
 H          1.5097584996       -0.1527476060       -0.1588569504
 N          3.4513766936        0.6057320680        1.4306058634
 S          3.4464211135        1.6293888133        0.1081833705
 O          3.7588837795        0.9219400061       -1.1106972518
 O          4.3768286772        2.6781957789        0.4759313340
 C          1.8105158093        2.3262802927        0.0688458186
 C          1.1630669456        2.5696613398        1.2641464465
 C         -0.0773212813        3.1851152210        1.2388203510
 C         -0.6399103591        3.5558909841        0.0271161856
 C          0.0212492838        3.3010105560       -1.1632477635
 C          1.2596145467        2.6790904868       -1.1459323527
 H          1.7934931517        2.4425528681       -2.0523173507
 H         -0.4234215111        3.5716004106       -2.1074687692
 H         -1.6013514346        4.0448839154        0.0118224187
 H         -0.6006690253        3.3748921460        2.1623093075
 H          1.6304133644        2.2700206878        2.1877045618
 H          4.2733701392        0.7144862777        2.0058036127
 H          4.2645218383       -1.5232602091        2.8020251451
 H          3.2885528128       -3.7829423656        2.6436387897
 H          1.4329259251       -4.2269400514        1.0832173055
 H         -0.2712213556       -3.4113881875       -0.2919889684
 C          0.7297816091       -2.7269398378       -2.0381693489
 C          2.0256821773       -2.1945337122       -2.5630766460
 C          1.8778918246       -3.6597425244       -2.2898219673
 H          1.8187392275       -4.3381461689       -3.1275290257
 H          2.3936012234       -4.0606222408       -1.4303148071
 H          2.0435660446       -1.8536141857       -3.5872750245
 H          2.6454738273       -1.5974556301       -1.9113632218
 H         -0.0902963330       -2.7633834915       -2.7489927882
