  62
        -98.93165776
 C          2.2479398250       -0.0516511445        0.5078943707
 C          3.4857682578       -0.0094430595        1.1952941805
 C          4.6929377388       -0.3511462633        0.4228711549
 C          4.5668222107       -0.7110993747       -0.8677367563
 C          5.5984644388       -1.1438183431       -1.8887537504
 C          7.0883612957       -0.9376751215       -1.6286526506
 C          7.5382757626        0.5230290540       -1.6123744009
 H          8.5886374655        0.5543855179       -1.3149560087
 H          7.4682171249        0.9187892613       -2.6287012628
 C          6.7366787346        1.4505389480       -0.7024807368
 H          7.1540951841        2.4565564730       -0.7989298688
 H          5.7017384925        1.4988938143       -1.0478301207
 C          6.7492218260        1.0831922992        0.7800338374
 H          6.2765847530        1.9038270849        1.3268238937
 H          7.7800828592        0.9997103916        1.1294341675
 C          6.0004436010       -0.2093394383        1.1477307251
 H          6.6241798863       -1.0859721665        0.9910214286
 H          5.7558155275       -0.1666184279        2.2131300085
 H          7.6180456029       -1.4359743964       -2.4450959121
 H          7.3829885517       -1.4384528967       -0.7112051374
 H          5.3242102280       -0.6388268712       -2.8204838333
 H          5.4196574514       -2.2118445587       -2.0547978933
 O          3.3462803724       -0.7869841126       -1.4741954307
 C          2.1649906677       -0.4633903608       -0.8214687782
 O          1.1504778207       -0.5912322083       -1.5310063134
 O          3.5807516620        0.2922803571        2.4151931375
 C          0.9983923030        0.3156278483        1.2859279066
 C         -0.0966623860       -0.6918301035        1.0449473226
 C          0.1112975295       -2.0124418013        1.4369304238
 C         -0.8650473629       -2.9694925797        1.2437793653
 C         -2.0799685894       -2.6267705849        0.6761868600
 C         -2.2952114670       -1.3138831394        0.2769129439
 C         -1.3055086270       -0.3575057394        0.4578994700
 H         -1.4946323242        0.6469605675        0.1178286978
 N         -3.5071208703       -0.9345262777       -0.3211899516
 S         -4.1195639802        0.5996668381        0.0219537242
 O         -3.5592793085        1.5531971785       -0.9020689844
 O         -3.9480153583        0.8969834187        1.4266463022
 C         -5.8469763864        0.3497443419       -0.3471275843
 C         -6.2708483278        0.4547438052       -1.6584777730
 C         -7.6068099930        0.2296749552       -1.9504218466
 C         -8.4914106489       -0.0957980569       -0.9328355925
 C         -8.0517526115       -0.1961569493        0.3786013246
 C         -6.7168629061        0.0268988228        0.6774733400
 H         -6.3316956923       -0.0303357956        1.6828529066
 H         -8.7424656618       -0.4456070805        1.1678587045
 H         -9.5307854495       -0.2689152531       -1.1630345479
 H         -7.9528075958        0.3094328953       -2.9683210579
 H         -5.5485643029        0.7179420448       -2.4137399769
 H         -4.2190243950       -1.6495493899       -0.2647273814
 H         -2.8479079025       -3.3716536341        0.5319419087
 H         -0.6852751599       -3.9899813891        1.5474659469
 H          1.0574247346       -2.2779456683        1.8896952843
 H          1.3014030604        0.2341347843        2.3441330497
 C          0.5380213462        1.7508508829        1.0798047862
 C          1.5159995103        2.8447773265        0.7760335690
 C          0.5342789056        2.4066494917       -0.2670817979
 H         -0.2907644693        3.0601073514       -0.5129528381
 H          0.8913279241        1.8286131405       -1.1052501398
 H          1.3744819669        3.8055785523        1.2475872798
 H          2.5522364962        2.5669463776        0.6489211969
 H         -0.2829784734        2.0097983422        1.7434054151
