  62
        -98.94056191
 C          0.1115987440        1.8616324537        0.1778280309
 C          1.0896902180        1.2099213042        0.9596695503
 C          2.3178897726        0.7829627298        0.2636215236
 C          2.4186133963        0.9832797260       -1.0628137149
 C          3.5626039377        0.6437352270       -1.9860087352
 C          4.2401077733       -0.7210829406       -1.7899702946
 C          5.6458872133       -0.6258787371       -1.1924010363
 H          6.2059677367       -1.5185994598       -1.4794228891
 H          6.1518209385        0.2329725321       -1.6384139815
 C          5.7058648412       -0.5124339991        0.3300455171
 H          6.7430694899       -0.3063564346        0.6042087365
 H          5.4366799258       -1.4732129197        0.7740044983
 C          4.8122982911        0.5695001410        0.9389574668
 H          5.2155558308        0.8240027640        1.9212569589
 H          4.8466859797        1.4759652234        0.3355587312
 C          3.3554685505        0.1204605845        1.1293924652
 H          3.2859977876       -0.9637054558        1.0033915125
 H          3.0344378800        0.3327438691        2.1540286189
 H          4.3241651656       -1.1904356066       -2.7718802251
 H          3.6061241601       -1.3676644996       -1.1847460247
 H          3.1363412697        0.7021033155       -2.9904203767
 H          4.3085050524        1.4404654797       -1.9175062040
 O          1.4374738431        1.5986599443       -1.7827028842
 C          0.2657255970        2.0415998793       -1.1960437072
 O         -0.5350164742        2.5795266347       -1.9849188874
 H         -1.3176739652       -0.2810511164        0.3232428444
 C         -2.2112070392        0.2174838493       -0.0208240030
 C         -2.3380647148        1.5872448553        0.1747536020
 C         -3.5000919906        2.2137742205       -0.2542266288
 C         -4.4866415290        1.4862549030       -0.8982925173
 C         -4.3297661395        0.1344357637       -1.1412098069
 C         -3.1761925851       -0.5054279274       -0.6998746138
 N         -2.9811696274       -1.8773037099       -0.9124773701
 S         -1.4405837364       -2.4955424347       -1.1230767123
 O         -0.5580515334       -1.5675508079       -1.7910740238
 O         -1.6600665647       -3.7595986278       -1.7963705575
 C         -0.8823537741       -2.8217792053        0.5346599166
 C         -1.6784025150       -3.6009367724        1.3511268730
 C         -1.2547873048       -3.8633887030        2.6436457593
 C         -0.0504123562       -3.3444030689        3.0951143526
 C          0.7400349391       -2.5688433637        2.2614874740
 C          0.3227020030       -2.3066402481        0.9664395018
 H          0.8993898643       -1.6936060984        0.2895031417
 H          1.6686636272       -2.1512006111        2.6156602582
 H          0.2762700172       -3.5421369613        4.1038022324
 H         -1.8649621708       -4.4665731477        3.2964281478
 H         -2.6063513179       -3.9847436493        0.9616377750
 H         -3.6587096485       -2.3209314127       -1.5148599031
 H         -5.0868147612       -0.4227638565       -1.6716451141
 H         -5.3830362597        1.9848826272       -1.2348429914
 H         -3.6282195429        3.2725758500       -0.1002631556
 C         -1.1851050696        2.3058274648        0.8313562822
 H         -1.1171148374        1.9722338662        1.8775877629
 C         -1.3123230713        3.8139215867        0.8044552149
 C         -2.0969887302        4.5245488262        1.8656306122
 C         -0.6018432386        4.6193152068        1.8494013877
 H         -0.1447245549        5.5529001333        1.5576511032
 H         -0.0448372794        4.0759651745        2.5985197173
 H         -2.6672252023        5.3978764720        1.5871917829
 H         -2.5573274995        3.9220095377        2.6337593963
 H         -1.3339104897        4.2102739282       -0.2046960651
 O          0.9482499995        0.9914250284        2.1938304367
