  62
        -98.94598378
 C         -1.5802592693       -1.3273893284        0.4298890576
 C         -1.4456316170       -0.1697107389       -0.3751345295
 C         -2.2247719651        0.9999664898        0.0583973114
 C         -2.9558529885        0.9265395699        1.1855102135
 C         -3.8340352371        2.0243250230        1.7112106260
 C         -5.2666780926        1.8934551739        1.1753450124
 C         -5.3441506007        1.6974342251       -0.3387798285
 H         -4.9040361058        0.7311520980       -0.5956397566
 H         -6.4020441372        1.6493231450       -0.6060499283
 C         -4.6587344032        2.8002546111       -1.1575994671
 H         -5.3179571668        3.0854817412       -1.9801506210
 H         -4.5141879372        3.6856918973       -0.5375199338
 C         -3.3217083461        2.3910250353       -1.7784595061
 H         -3.0371785231        3.1571667564       -2.5042530876
 H         -3.4444495083        1.4523316892       -2.3241632421
 C         -2.1514572529        2.2309500346       -0.7996946293
 H         -2.0653397059        3.1268325303       -0.1817385557
 H         -1.2360593837        2.1234986950       -1.3879920765
 H         -5.8238033494        2.7886522470        1.4578321504
 H         -5.7392890883        1.0339810441        1.6566992557
 H         -3.8560580253        1.9565194703        2.8003432891
 H         -3.4150360885        2.9872145299        1.4256668582
 O         -3.0128892877       -0.1863234115        1.9626429973
 C         -2.3432975558       -1.3433860772        1.5961893698
 O         -2.4923837785       -2.2980967852        2.3869840886
 O         -0.7159845438       -0.1147423329       -1.3973976787
 C         -0.8635901611       -2.6044784099        0.0336207036
 C          0.6171279685       -2.3611892688       -0.1303777810
 C          1.3693318982       -2.9416552901       -1.1436117353
 C          2.7271104264       -2.6908878404       -1.2427372784
 C          3.3633054033       -1.8580540956       -0.3413160631
 C          2.6199428411       -1.2708794469        0.6748877034
 C          1.2632284020       -1.5344624246        0.7800504207
 H          0.6896022507       -1.0795752555        1.5788483669
 N          3.2517250233       -0.4146981997        1.5982702958
 S          4.1442662350        0.8696784411        0.9981804003
 O          5.3537293276        0.3628133185        0.4002690920
 O          4.3154912871        1.7631509146        2.1217191312
 C          3.1200963687        1.6328911298       -0.2444328317
 C          3.2261856685        1.2317817361       -1.5605546674
 C          2.3889969323        1.8054901235       -2.5034258334
 C          1.4709997078        2.7687740441       -2.1180661129
 C          1.3799117612        3.1641180760       -0.7924871769
 C          2.2051365196        2.5854846439        0.1568858363
 H          2.1671189985        2.8674406728        1.1972834524
 H          0.6659079125        3.9156743968       -0.4956386679
 H          0.8219298788        3.2145045464       -2.8555215036
 H          2.4527728910        1.4965210585       -3.5341540112
 H          3.9607221780        0.4897464055       -1.8255524122
 H          2.6319718441       -0.0865943597        2.3249695277
 H          4.4187043203       -1.6487396398       -0.4074689280
 H          3.2983613692       -3.1502055469       -2.0350630604
 H          0.8918511101       -3.5900213052       -1.8596907569
 H         -1.0036560939       -3.3066531788        0.8691176037
 C         -1.5122961358       -3.1880755523       -1.2061555214
 C         -1.5659580783       -4.6712931015       -1.4118689071
 C         -2.8131683163       -3.9174438710       -1.0633617813
 H         -3.5676152597       -3.7837349247       -1.8241491189
 H         -3.2144181497       -4.0215924398       -0.0653547956
 H         -1.4673664368       -5.0576229598       -2.4152154953
 H         -1.1269327806       -5.2992583663       -0.6513113595
 H         -1.3876997831       -2.5530656343       -2.0759618881
