  62
        -98.93962517
 C          2.2742726194        0.9052895494        0.6438458805
 C          3.4148001996        0.8745565996       -0.1959347593
 C          4.4012770296       -0.1772946004        0.0969809807
 C          4.1796497494       -1.0355041907        1.1079012604
 C          5.0713593394       -2.1870373907        1.4700768104
 C          4.6550694096       -3.4674734305        0.7326291500
 C          4.4530938499       -3.2774755902       -0.7707948300
 H          3.5968338399       -2.6185311102       -0.9341912801
 H          4.1910922200       -4.2520198801       -1.1885939003
 C          5.6751913000       -2.7152122100       -1.5103282396
 H          5.8217930003       -3.2876033997       -2.4286566297
 H          6.5695674999       -2.8464055101       -0.9002695195
 C          5.5496355901       -1.2457212199       -1.9161648693
 H          4.6070269002       -1.0917096298       -2.4473060995
 H          6.3601392402       -1.0151002897       -2.6125366891
 C          5.6280571698       -0.2291775301       -0.7703766391
 H          5.7218796698        0.7655016200       -1.2153754588
 H          6.5172820997       -0.4216687102       -0.1671092389
 H          3.7151290495       -3.8234519507        1.1612363097
 H          5.4178274496       -4.2287579905        0.9062181999
 H          6.1007508194       -1.9326708906        1.2250802206
 H          4.9938043191       -2.3561549410        2.5453910303
 O          3.0763990492       -0.9741285709        1.8977414102
 C          2.1056749392       -0.0111095309        1.6868488502
 O          1.1545941391       -0.0642132211        2.4944541200
 H         -1.4145446206        1.1398686292        0.7219119497
 C         -1.0921763204        1.1558547095       -0.3087645002
 C          0.2092075397        1.5237483496       -0.6205481898
 C          0.6076741800        1.5162487799       -1.9535077297
 C         -0.2801654598        1.1408912501       -2.9446839500
 C         -1.5751342099        0.7689832300       -2.6300888804
 C         -1.9857554902        0.7796482197       -1.3019239105
 N         -3.3116484602        0.4530285195       -0.9660072208
 S         -3.6236460905       -0.3582961008        0.4812558889
 O         -3.5552924608        0.5861472689        1.5676204991
 O         -2.7867363205       -1.5332269808        0.5850921788
 C         -5.3231562504       -0.8258264009        0.2097259184
 C         -6.2959204705        0.1504261691        0.3184598184
 C         -7.6181001204       -0.1923922909        0.0858001680
 C         -7.9445114003       -1.4984264709       -0.2490484823
 C         -6.9580986602       -2.4674836908       -0.3519274624
 C         -5.6329543703       -2.1307378008       -0.1223426220
 H         -4.8329648102       -2.8510915507       -0.1837531620
 H         -7.2150207901       -3.4825543507       -0.6087086527
 H         -8.9745632602       -1.7631556409       -0.4283043326
 H         -8.3879040505        0.5578714390        0.1673458281
 H         -5.9955080406        1.1486420090        0.5907798887
 H         -3.8086195200        0.0209541697       -1.7338632811
 H         -2.2652466197        0.4750388402       -3.4064125806
 H          0.0415811204        1.1327435504       -3.9752525699
 H          1.6224521600        1.7873924100       -2.1997687694
 C          1.1541726094        1.9228456094        0.4883746805
 H          0.5889574692        1.8822934791        1.4300848504
 C          1.6557845694        3.3411216494        0.2951854509
 C          0.7354734593        4.4796437993        0.6115629510
 C          1.9103588391        4.1960576592        1.4979191212
 H          2.7495272591        4.8750019992        1.4786438516
 H          1.7234546089        3.7600753089        2.4690767311
 H         -0.2492609308        4.2360300192        0.9825492207
 H          0.7655270994        5.3562057795       -0.0170174888
 H          2.3284858996        3.4516177697       -0.5444096989
 O          3.6257496398        1.6740432399       -1.1454559890
