  62
        -98.94220191
 C         -2.5596374977       -0.2582938517        0.5915963362
 C         -2.1964748243        0.2596809626       -0.6765711758
 C         -2.0862133938        1.7227523687       -0.7610098218
 C         -2.2916227613        2.4778111943        0.3325507498
 C         -2.2652956397        3.9812486089        0.3962686342
 C         -0.8617284648        4.5787969486        0.5587610822
 C          0.0138883438        4.5222945931       -0.6930605740
 H         -0.5364553456        4.9319100986       -1.5409505472
 H          0.8724166411        5.1726342738       -0.5143971885
 C          0.5263850370        3.1183075351       -1.0412345651
 H          1.5892243643        3.1646491497       -1.2924688278
 H          0.4480746792        2.4630190357       -0.1697671356
 C         -0.1761891303        2.4491588080       -2.2224800180
 H          0.2455276150        1.4459961762       -2.3273587522
 H          0.0385275947        3.0049056347       -3.1389651742
 C         -1.6981169168        2.3237880283       -2.0780853266
 H         -2.1674002266        3.3006988805       -2.2012428070
 H         -2.0603340545        1.6581442231       -2.8659542404
 H         -0.9840609591        5.6258127421        0.8460404465
 H         -0.3547126687        4.0630363216        1.3777613186
 H         -2.7356828473        4.3926087890       -0.4975108498
 H         -2.8626267194        4.2630974838        1.2662510235
 O         -2.5885538114        1.9389443548        1.5454570300
 C         -2.7008101026        0.5683393686        1.7080265333
 O         -2.9348390360        0.2120211066        2.8815635909
 H         -0.1469715556       -1.1406890539        1.1506392951
 C         -0.2551243318       -1.9987127187        0.5027674478
 C         -1.5276124992       -2.4750665091        0.2109467677
 C         -1.6485262675       -3.5791190659       -0.6217462197
 C         -0.5201948593       -4.1721473277       -1.1620185307
 C          0.7401680635       -3.6675997392       -0.9027271384
 C          0.8717782903       -2.5642496292       -0.0670657802
 N          2.1415324833       -2.0161798006        0.2241604560
 S          2.3074492626       -0.3520774688       -0.0474126516
 O          1.5725817399        0.3746055708        0.9564618153
 O          2.0043035926       -0.0515452053       -1.4284404097
 C          4.0575147764       -0.1655771426        0.2412496139
 C          4.9205762259       -0.0524131652       -0.8317030803
 C          6.2810782227        0.0577393394       -0.5894356512
 C          6.7525142670        0.0496395934        0.7144839872
 C          5.8734810009       -0.0631496443        1.7816904736
 C          4.5123220035       -0.1722161949        1.5459602253
 H          3.7905892143       -0.2536271601        2.3420789764
 H          6.2429692152       -0.0661743110        2.7944735836
 H          7.8114077704        0.1341034539        0.9010860063
 H          6.9661709251        0.1486899520       -1.4168430915
 H          4.5066199708       -0.0436810492       -1.8272528893
 H          2.8716227208       -2.4950787120       -0.2898967570
 H          1.6160901178       -4.1160690872       -1.3477308322
 H         -0.6267107177       -5.0277598360       -1.8118242668
 H         -2.6246782377       -3.9621341679       -0.8700357995
 C         -2.6950150760       -1.7519128288        0.8375652783
 H         -2.6053564919       -1.8647360313        1.9315831323
 C         -4.0487459185       -2.3309564314        0.4525142587
 C         -5.2678698704       -1.4628366432        0.3687086427
 C         -4.6840839770       -2.0565928375       -0.8762096728
 H         -5.2232694820       -2.8569177861       -1.3617574589
 H         -4.1516967134       -1.4105215661       -1.5558675615
 H         -6.2019396615       -1.8565889180        0.7405681483
 H         -5.1409328649       -0.4034564324        0.5400082599
 H         -4.1988533959       -3.3219855970        0.8696848594
 O         -1.9955675183       -0.4488030457       -1.6975040047
