  62
        -98.94080236
 C          2.5929654213       -1.3181181596       -0.2227132811
 C          2.4017114652       -0.2240983427        0.6590143608
 C          3.5187027632        0.7325894347        0.7455576882
 C          4.6345728752        0.5223986943        0.0259794896
 C          5.8209330014        1.4403107903       -0.0131869786
 C          5.6902734795        2.4653737507       -1.1483114076
 C          4.3381589201        3.1779898275       -1.1846761616
 H          4.3723298761        3.8987595855       -2.0044744140
 H          3.5571059194        2.4534537141       -1.4271907008
 C          3.9668664340        3.9025365962        0.1167217808
 H          4.8596019433        4.0535875366        0.7248094469
 H          3.5729876441        4.8901458495       -0.1322709367
 C          2.8979642390        3.1975612299        0.9544164942
 H          2.0328976789        2.9627114446        0.3279217927
 H          2.5582506608        3.8926933572        1.7272131896
 C          3.3439453698        1.9113125727        1.6613080393
 H          4.2584109302        2.1003458599        2.2276069136
 H          2.5545694482        1.6315789033        2.3655832415
 H          6.4885351898        3.2020159202       -1.0418527335
 H          5.8294674096        1.9475890766       -2.1000668758
 H          5.9109419219        1.9507619681        0.9436309594
 H          6.7159582632        0.8386605830       -0.1801289939
 O          4.7872172835       -0.5434838105       -0.7997834671
 C          3.7695028389       -1.4670202993       -0.9648197436
 O          4.0293732971       -2.3665837480       -1.7882604714
 H         -0.6007699761       -1.9412147044        1.2054928754
 C         -0.7718019147       -1.5444268413        0.2170097801
 C          0.2044024136       -1.6853608317       -0.7552681509
 C         -0.0194271547       -1.1313914827       -2.0119374824
 C         -1.1960632313       -0.4601289335       -2.2869343617
 C         -2.1677763702       -0.3170733257       -1.3117401705
 C         -1.9433222969       -0.8470528874       -0.0486331716
 N         -2.9158181296       -0.6998226653        0.9532669945
 S         -3.7016553566        0.7715325623        1.1244003545
 O         -2.8873330372        1.8852982084        0.6977957871
 O         -4.1559288631        0.7949145857        2.4983175130
 C         -5.1203727488        0.6106952922        0.0574928253
 C         -5.4295308520        1.6206282485       -0.8322730571
 C         -6.5492598185        1.4858548213       -1.6385061058
 C         -7.3370250503        0.3493798955       -1.5406961519
 C         -7.0143431074       -0.6553679489       -0.6407360850
 C         -5.8974260214       -0.5257775588        0.1689460610
 H         -5.6148621611       -1.2821580380        0.8817396191
 H         -7.6289728848       -1.5380825433       -0.5677421312
 H         -8.2073645182        0.2463007145       -2.1693223866
 H         -6.8013798727        2.2665158776       -2.3381512869
 H         -4.7847787871        2.4840412407       -0.8782388693
 H         -2.6221494415       -1.0535631801        1.8524618756
 H         -3.0802644940        0.2197962806       -1.5138530630
 H         -1.3581486390       -0.0392547305       -3.2677375057
 H          0.7477256587       -1.2257628203       -2.7686368697
 C          1.5194466530       -2.3664999414       -0.4722672799
 H          1.8387571956       -2.8811387516       -1.3924449122
 C          1.4133316288       -3.4368596611        0.6041576890
 C          2.6511380493       -4.0100985361        1.2254865390
 C          1.7118632239       -3.1847009745        2.0500773597
 H          1.1053906704       -3.6876844997        2.7896662647
 H          2.0157290771       -2.1916387264        2.3405940798
 H          2.6955511393       -5.0741210041        1.4018690330
 H          3.5968482122       -3.5740091497        0.9376934612
 H          0.6121582772       -4.1381689306        0.3907051181
 O          1.3684462724       -0.0401603039        1.3537984425
