  62
        -98.94648987
 C         -1.5605290383       -1.0961601489        0.0215991593
 C         -2.6200484184       -0.8204966772        0.9231922677
 C         -3.3289428072        0.4463386162        0.7152706138
 C         -2.9263850170        1.2835377117       -0.2577562040
 C         -3.5153508437        2.6340196564       -0.5633838946
 C         -4.7612139707        2.5863853081       -1.4586491347
 C         -6.0284344940        2.0599589111       -0.7839306176
 H         -6.1981427330        2.6053222620        0.1449662491
 H         -6.8633826577        2.2854392903       -1.4503958755
 C         -6.0154479545        0.5508791297       -0.5026878356
 H         -6.9668006004        0.1140062438       -0.8146344541
 H         -5.2346462249        0.0753558992       -1.1007660212
 C         -5.8073882328        0.1816666805        0.9661510513
 H         -6.6551046972        0.5361902689        1.5567087119
 H         -5.7756821526       -0.9081039684        1.0442513989
 C         -4.5170230632        0.7398368256        1.5804056931
 H         -4.3557347114        0.2500143250        2.5437315433
 H         -4.6133008328        1.8126940833        1.7453817729
 H         -4.9549522370        3.6055603696       -1.8010769449
 H         -4.5376407321        1.9779477472       -2.3380499970
 H         -3.7555979159        3.1475999277        0.3678944023
 H         -2.7422742334        3.2024210474       -1.0849287243
 O         -1.8881079573        0.9952521929       -1.0852662755
 C         -1.1950581101       -0.2042808660       -0.9864307949
 O         -0.2981975114       -0.3366052303       -1.8409024692
 O         -2.9522636435       -1.5947571925        1.8588147891
 C         -0.7713469315       -2.3808812904        0.2195866332
 C          0.6075953945       -1.9805085152        0.6798300583
 C          0.8125347332       -1.6506588815        2.0170956975
 C          2.0354640497       -1.1718565962        2.4482769155
 C          3.0723058107       -0.9844808567        1.5501427643
 C          2.8710987640       -1.2982049416        0.2129705085
 C          1.6561764553       -1.8184042140       -0.2117145900
 H          1.5170328248       -2.0506195813       -1.2552623302
 N          3.8961373349       -1.0474026384       -0.7179651715
 S          4.6254476902        0.4573053100       -0.6246583000
 O          5.0213883247        0.7794570454       -1.9783587781
 O          5.6998418454        0.4045474776        0.3374144508
 C          3.3751349093        1.5965034286       -0.0470567472
 C          2.1527328514        1.6398124880       -0.6872741621
 C          1.1901547635        2.5255728800       -0.2304117797
 C          1.4625879157        3.3532990300        0.8472170459
 C          2.6980155800        3.3032277438        1.4742408442
 C          3.6631003012        2.4161118332        1.0261242363
 H          4.6326597925        2.3368809236        1.4906658558
 H          2.9091318765        3.9481131175        2.3120354053
 H          0.7066269364        4.0377978474        1.1988072213
 H          0.2280046865        2.5472682700       -0.7180289611
 H          1.9371076713        0.9835484226       -1.5157762278
 H          3.6262466897       -1.2498430575       -1.6701370414
 H          4.0273110446       -0.5926674830        1.8614322413
 H          2.1812671083       -0.9281828279        3.4894453621
 H         -0.0081104918       -1.7599842176        2.7120745559
 H         -1.2725740874       -2.9083108780        1.0417584666
 C         -0.7845961641       -3.2653570856       -1.0085890003
 C         -0.3396612961       -4.6914217826       -0.8880168604
 C         -1.7882301028       -4.3737240068       -1.1021050372
 H         -2.2277897023       -4.5903178404       -2.0643253438
 H         -2.4683753853       -4.5041300398       -0.2732191896
 H          0.2170965590       -5.1302375231       -1.7019244959
 H         -0.0349658807       -5.0357567278        0.0886369751
 H         -0.5503276574       -2.7371398143       -1.9247934980
