  62
        -98.94075001
 C          2.3322399005        0.7496063494       -0.1086702109
 C          3.5865609906        1.1668617097        0.3971278686
 C          4.7654395804        0.5238308191       -0.1972276810
 C          4.5943285803       -0.3870102316       -1.1730741003
 C          5.7039302001       -1.1532204522       -1.8322413798
 C          5.9758465901       -2.4770788417       -1.1041434888
 C          6.1283663302       -2.3296368205        0.4097184811
 H          5.1726803003       -2.0133390701        0.8340593709
 H          6.3460368902       -3.3211635703        0.8125335318
 C          7.2256609804       -1.3483815303        0.8450908002
 H          7.8036989004       -1.8048233298        1.6513256805
 H          7.9114174903       -1.1682476410        0.0165383000
 C          6.7062861805       -0.0095446099        1.3722946293
 H          7.5386321906        0.5139398104        1.8500240488
 H          5.9482885606       -0.1866654392        2.1394781795
 C          6.1147536605        0.9372034694        0.3202887986
 H          5.9662916307        1.9111335598        0.7957487579
 H          6.8216341705        1.0609174187       -0.5025107516
 H          6.8815889200       -2.9205081921       -1.5217109785
 H          5.1428418900       -3.1563274517       -1.2996575282
 H          6.6035822102       -0.5409637523       -1.8432545203
 H          5.4084542000       -1.3682859430       -2.8604772496
 O          3.3734094202       -0.7511920518       -1.6440045499
 C          2.2116638203       -0.2007640113       -1.1219968702
 O          1.1619372202       -0.6325115716       -1.6366193898
 O          3.7126503707        2.0327117104        1.3046097280
 C          1.0711926606        1.3781246900        0.4528008487
 C          0.1293211305        0.3237204405        0.9790827296
 C          0.6322463905       -0.7040169590        1.7728398403
 C         -0.2023418096       -1.6868072185        2.2674098111
 C         -1.5570673296       -1.6639885886        1.9865472312
 C         -2.0746805395       -0.6302855091        1.2153642405
 C         -1.2323651195        0.3568265904        0.7218115397
 H         -1.6569383995        1.1419747400        0.1203088491
 N         -3.4579583896       -0.5549121192        0.9736904505
 S         -4.0454114996        0.0656236298       -0.4810320399
 O         -3.5015291498       -0.6639246111       -1.6048540594
 O         -3.8604785995        1.4945408098       -0.4922207510
 C         -5.7793414696       -0.3041296799       -0.2831853694
 C         -6.5212837595        0.4801041108        0.5802231100
 C         -7.8646032595        0.1921581911        0.7600854404
 C         -8.4412908497       -0.8686306394        0.0770769612
 C         -7.6849405398       -1.6450817001       -0.7875770183
 C         -6.3398237898       -1.3635642404       -0.9705118886
 H         -5.7142104199       -1.9348852909       -1.6375458582
 H         -8.1366976999       -2.4666062005       -1.3198503676
 H         -9.4875802397       -1.0897543891        0.2173128415
 H         -8.4566408894        0.7949183617        1.4296751399
 H         -6.0324691894        1.2990330412        1.0813883994
 H         -3.9350709496       -1.4160941489        1.2055909212
 H         -2.2076954596       -2.4374950782        2.3655133019
 H          0.2051230704       -2.4833406081        2.8719798317
 H          1.6922526305       -0.7268092589        1.9875599302
 H          1.4042332407        1.9955546606        1.3013811682
 C          0.4361012406        2.2833607793       -0.5824184619
 C         -0.3385016793        3.4939796997       -0.1582504728
 C          1.0044785407        3.6519082690       -0.8035242930
 H          1.0538470407        4.0325799083       -1.8126674633
 H          1.8384970008        3.9457534394       -0.1829685233
 H         -1.2214287693        3.7604980193       -0.7201478129
 H         -0.4171727791        3.6886682305        0.9007365171
 H          0.0906087405        1.7377865286       -1.4551229515
