  62
        -98.93967377
 C         -0.4570152776       -1.6285509749        0.8273115593
 C         -1.4107430894       -1.6261779940       -0.2153979344
 C         -2.4884922453       -0.6230849862       -0.1241962459
 C         -2.4905814087        0.2428714145        0.9039543441
 C         -3.4204683518        1.4006855943        1.1691797643
 C         -4.9187792784        1.1744658961        0.9200936380
 C         -5.4472041967        1.9090617149       -0.3133259994
 H         -4.9710139919        2.8906627754       -0.3630077712
 H         -6.5202598598        2.0724289386       -0.1900590677
 C         -5.2420484663        1.1843818143       -1.6423376023
 H         -5.5317301958        1.8710850607       -2.4413196839
 H         -5.9139305746        0.3245596353       -1.6926307641
 C         -3.8179378820        0.6944665737       -1.9125597423
 H         -3.0808617006        1.4411514180       -1.6143399022
 H         -3.7083731879        0.5637790276       -2.9917454685
 C         -3.4934185419       -0.6494606949       -1.2421106872
 H         -3.0629619226       -1.3313280850       -1.9821313035
 H         -4.4134973950       -1.1227500002       -0.8871245076
 H         -5.4591566247        1.5504022714        1.7904893115
 H         -5.1266268878        0.1084986959        0.8461377820
 H         -3.2559998979        1.6631515175        2.2172492000
 H         -3.0702541690        2.2504100076        0.5752508626
 O         -1.5462943929        0.2062525646        1.8879995937
 C         -0.5028109405       -0.7014406276        1.8654199670
 O          0.3051718109       -0.5826918871        2.8089292931
 H          1.4480864205       -0.0785527429        0.0976021974
 C          1.7812152177       -0.7744086099       -0.6586653310
 C          1.5417632818       -2.1318386471       -0.4815496794
 C          1.9963731759       -3.0173114350       -1.4483567550
 C          2.6356745531       -2.5414443381       -2.5813640091
 C          2.8146443760       -1.1851802844       -2.7824549546
 C          2.3778461855       -0.2918639841       -1.8096538882
 N          2.5409257137        1.0926021219       -1.9599125139
 S          1.4255669181        2.1476105030       -1.2934366485
 O          0.0793624519        1.6250730649       -1.3245108383
 O          1.6349995176        3.3839323392       -2.0207737953
 C          1.9774208085        2.3755396034        0.3827022295
 C          3.3299123228        2.5135938844        0.6251415324
 C          3.7572333883        2.7185201614        1.9267731091
 C          2.8314251284        2.7851332510        2.9572452272
 C          1.4769566796        2.6523347133        2.6964978298
 C          1.0440088102        2.4484372753        1.3963561238
 H         -0.0004360638        2.3212606408        1.1564172906
 H          0.7548296494        2.6905591230        3.4960332456
 H          3.1654766491        2.9380925525        3.9713263678
 H          4.8099741529        2.8217471111        2.1352542703
 H          4.0194291037        2.4522855173       -0.2001372854
 H          2.8654132543        1.3966395923       -2.8659974231
 H          3.2807267444       -0.8170027318       -3.6835984043
 H          2.9790068052       -3.2378522672       -3.3313785620
 H          1.8350097027       -4.0756809370       -1.3258436577
 C          0.7597257103       -2.5357116664        0.7464920316
 H          1.3680145690       -2.3087386661        1.6341907484
 C          0.3711769970       -3.9971342296        0.7756540974
 C          1.3407517618       -5.0203074730        1.2844699967
 C          0.1367883955       -4.6582844645        2.0995304477
 H         -0.6668617246       -5.3743807609        2.1823061152
 H          0.2788479990       -4.0573724206        2.9860656649
 H          2.3042400674       -4.6706045564        1.6229979853
 H          1.3638176839       -5.9897524042        0.8101799739
 H         -0.2833053615       -4.2706102547       -0.0434118140
 O         -1.3651044485       -2.4212702500       -1.1917364651
