  62
        -98.94290369
 C         -2.0409036925       -0.9095299154        0.4658561051
 C         -2.7258542843        0.1530226895        1.1125573001
 C         -4.1622390063        0.2743908751        0.8352708120
 C         -4.7478912909       -0.6170637509        0.0155060475
 C         -6.1918677385       -0.5913121814       -0.3921028846
 C         -6.3922599454        0.2199653763       -1.6797027485
 C         -5.7212235417        1.5932643427       -1.6547655868
 H         -4.6372639418        1.4607996357       -1.6214474407
 H         -5.9552571066        2.0872023039       -2.6002818568
 C         -6.1564155172        2.4910011218       -0.4880701211
 H         -6.3492287748        3.4951620593       -0.8715443555
 H         -7.0908265141        2.1214682763       -0.0641322479
 C         -5.1167891923        2.6323174239        0.6254856319
 H         -5.4302097086        3.4486116974        1.2819488207
 H         -4.1522616936        2.9127019812        0.1940984230
 C         -4.9086479500        1.3932543269        1.5054747071
 H         -4.2951540775        1.6924677151        2.3605503844
 H         -5.8724410992        1.0427055197        1.8808046693
 H         -7.4639137785        0.3397273482       -1.8487632708
 H         -5.9772800329       -0.3483395641       -2.5151642162
 H         -6.7833100166       -0.1636752064        0.4151925653
 H         -6.5182650175       -1.6180905879       -0.5653911037
 O         -4.0671466768       -1.6282469504       -0.5755008918
 C         -2.7030732033       -1.7990487221       -0.3813147702
 O         -2.2330719746       -2.7644448652       -1.0136027602
 O         -2.1588257533        0.9602718883        1.8983459954
 C         -0.5577105575       -1.0393717902        0.7663296258
 C          0.3025729860       -0.4273309982       -0.3136763621
 C          0.2409093917       -0.8655451600       -1.6330896986
 C          1.0495585364       -0.2947747038       -2.5984185109
 C          1.9499746312        0.7028551590       -2.2658560131
 C          2.0243480810        1.1430251466       -0.9505301047
 C          1.1946655122        0.5838190542        0.0127596065
 H          1.2564977373        0.9466716638        1.0276671406
 N          2.9366894374        2.1479308051       -0.5735248251
 S          4.0510870768        1.7966705393        0.6263434560
 O          3.3720082122        1.5480156919        1.8711425039
 O          4.9822249698        2.9019918220        0.6072607504
 C          4.8611258639        0.3130916232        0.0543529284
 C          6.0522640468        0.4278800259       -0.6357032643
 C          6.6490415157       -0.7164371776       -1.1396759642
 C          6.0405295539       -1.9490214653       -0.9568869197
 C          4.8428300772       -2.0469286348       -0.2654463534
 C          4.2444481412       -0.9072597337        0.2483061730
 H          3.3151110511       -0.9510987470        0.7920654653
 H          4.3671209798       -3.0041736296       -0.1248656717
 H          6.5017667610       -2.8394328423       -1.3540351504
 H          7.5821813783       -0.6437133874       -1.6747040348
 H          6.4903005504        1.4061108306       -0.7515454818
 H          3.4095171841        2.5806238790       -1.3549331714
 H          2.5861289779        1.1419693086       -3.0195443668
 H          0.9858660653       -0.6380084412       -3.6198059266
 H         -0.4524773446       -1.6503726819       -1.8931206618
 H         -0.4024633011       -0.4513433329        1.6817470632
 C         -0.1162065441       -2.4648934261        1.0379692492
 C          1.0743116255       -2.6997761950        1.9166840913
 C         -0.3005329394       -3.0385724629        2.4089548468
 H         -0.5786602716       -4.0777682275        2.4987254731
 H         -0.7435380466       -2.4020097643        3.1613963490
 H          1.7449825832       -3.5092579829        1.6729272295
 H          1.5612076013       -1.8356865928        2.3459062536
 H         -0.2654803491       -3.1297103331        0.1973585287
