  62
        -98.93866141
 C         -1.7893004515       -0.1279841841        0.0155346739
 C         -2.8270753561       -0.9022772390        0.5805829851
 C         -4.1777020144       -0.3073895009        0.5865937024
 C         -4.3415649287        0.9270165389        0.0751489912
 C         -5.6173540446        1.7147663507       -0.0612789193
 C         -6.4971481577        1.2201989116       -1.2210717894
 C         -6.6255535788       -0.2970711640       -1.3292489583
 H         -7.1736362860       -0.5186973896       -2.2488555743
 H         -5.6307078665       -0.7341349570       -1.4327298292
 C         -7.3604163187       -0.9725154130       -0.1738690435
 H         -8.3699261573       -0.5614119854       -0.1028195000
 H         -7.4509097246       -2.0329035282       -0.4229668808
 C         -6.6937479862       -0.8624593904        1.1988227988
 H         -7.1904903646       -1.5791440937        1.8594465430
 H         -6.8539482133        0.1200749106        1.6343966078
 C         -5.2090351663       -1.2123146113        1.2170232764
 H         -5.0673702754       -2.1962958486        0.7558862140
 H         -4.8937537148       -1.3362104413        2.2601371047
 H         -6.0598627030        1.5839339445       -2.1541685529
 H         -7.4878709525        1.6658002814       -1.1170489252
 H         -6.1664586641        1.7013521584        0.8755069173
 H         -5.3270744739        2.7484511775       -0.2619419586
 O         -3.3062350011        1.6419452966       -0.4525358390
 C         -2.0160656035        1.1468565132       -0.5007636108
 O         -1.1842950484        1.9206849087       -1.0122825015
 O         -2.6394218542       -2.0511902709        1.0653507008
 C         -0.3835247903       -0.6999466960       -0.0289597352
 C          0.5644898992        0.2126704887        0.7064710347
 C          0.2498584218        0.5810114779        2.0133123337
 C          1.0662745909        1.4376691062        2.7235057563
 C          2.2236497751        1.9366876221        2.1510109546
 C          2.5524566565        1.5684584264        0.8527934312
 C          1.7305801905        0.7026381553        0.1410195693
 H          2.0017999173        0.4496918758       -0.8700300217
 N          3.7160722199        2.0638517339        0.2503106513
 S          4.5938029130        1.1340580528       -0.8166224787
 O          5.9220525940        1.7094656761       -0.7829223231
 O          3.9614123267        1.1007112231       -2.1112022271
 C          4.6288612651       -0.5077259151       -0.1158259269
 C          4.9194212640       -0.6598229153        1.2257619573
 C          4.9541212044       -1.9361084209        1.7632333834
 C          4.7054917395       -3.0347644913        0.9546799209
 C          4.4254670385       -2.8666847078       -0.3920984226
 C          4.3856039250       -1.5915413157       -0.9334512177
 H          4.1651023195       -1.4144075215       -1.9735247032
 H          4.2347654093       -3.7209107552       -1.0219790679
 H          4.7311131042       -4.0272685115        1.3762012889
 H          5.1735369834       -2.0701032544        2.8102055940
 H          5.1153669649        0.2091421096        1.8320946724
 H          4.3036503401        2.6318627192        0.8416576382
 H          2.8592398873        2.6152566484        2.6991770056
 H          0.8030850990        1.7202950475        3.7316196561
 H         -0.6562802984        0.1931982995        2.4584078256
 H         -0.4392715236       -1.6525698942        0.5185683469
 C          0.0183161167       -0.9848587156       -1.4599123485
 C          0.9978933734       -2.0760059041       -1.7668660194
 C         -0.4517874059       -2.2554426433       -2.1005259172
 H         -0.7520643735       -2.2302941919       -3.1373913898
 H         -1.0387234058       -2.9275170710       -1.4916696315
 H          1.6934230798       -1.9232858201       -2.5780692677
 H          1.4018924175       -2.6326899862       -0.9350743945
 H          0.0372183823       -0.0920658317       -2.0759086500
