  62
        -98.93806929
 C         -2.2571416084       -1.0319758769       -0.4488427944
 C         -3.6503827571       -1.0896618202       -0.1775712817
 C         -4.4295752873        0.1086624066       -0.5043126976
 C         -3.8091006752        1.1862483182       -1.0165812819
 C         -4.4642722675        2.4799126541       -1.4176894680
 C         -4.6712581268        3.4596640394       -0.2545710021
 C         -5.7756408311        3.0747726911        0.7307033562
 H         -5.9596217580        3.9466288667        1.3616316698
 H         -6.6954655848        2.8698936780        0.1820356866
 C         -5.4335906822        1.8788406805        1.6304218350
 H         -5.7036785904        2.1112141559        2.6630789272
 H         -4.3543260872        1.7079263710        1.6148306958
 C         -6.1473367310        0.5792621986        1.2575218199
 H         -7.2236960553        0.6990634522        1.3989969104
 H         -5.8039052512       -0.2065524894        1.9351350426
 C         -5.8931141848        0.1086473208       -0.1804738168
 H         -6.2554817720       -0.9180326686       -0.2735929081
 H         -6.4378638652        0.7377913469       -0.8840867177
 H         -4.9222341308        4.4308791021       -0.6873197340
 H         -3.7256915268        3.5697704732        0.2819453549
 H         -5.4221037056        2.2730201865       -1.8959164266
 H         -3.8032855958        2.9494828372       -2.1493769712
 O         -2.4721501410        1.2111388681       -1.2510944639
 C         -1.6572320823        0.1215494672       -0.9588236261
 O         -0.4559556118        0.3248895516       -1.2158197175
 O         -4.2180393534       -2.1010500738        0.3134410397
 C         -1.4340727599       -2.2547337500       -0.0776111026
 C         -0.2920183604       -1.8396445007        0.8130113353
 C         -0.5257521325       -1.6163143156        2.1664948202
 C          0.4881856924       -1.1700719160        2.9935874092
 C          1.7513277803       -0.9245646515        2.4847481103
 C          1.9888649100       -1.1303626105        1.1327273907
 C          0.9766422454       -1.6044669496        0.3086707150
 H          1.1659824124       -1.7482245809       -0.7436364758
 N          3.2664234877       -0.8674935484        0.6022371953
 S          4.0271366128        0.5455740351        1.1328931535
 O          4.7295261850        0.2441683304        2.3571801825
 O          3.0838127495        1.6381980095        1.2071105709
 C          5.1986637451        0.8220346840       -0.1810554805
 C          4.7665049677        1.4706457390       -1.3228666704
 C          5.6646911354        1.6720451632       -2.3588839391
 C          6.9709978863        1.2213859425       -2.2374206705
 C          7.3887231112        0.5709529727       -1.0861745502
 C          6.4958930023        0.3664543937       -0.0458782381
 H          6.7746894918       -0.1275512785        0.8701741168
 H          8.4052685039        0.2239165172       -0.9954790904
 H          7.6673471782        1.3817726300       -3.0453006339
 H          5.3418522101        2.1784755431       -3.2543698022
 H          3.7437365005        1.8116165078       -1.3722367332
 H          3.2598245378       -0.9074991725       -0.4083340096
 H          2.5476395263       -0.5541597572        3.1106847446
 H          0.2937382895       -1.0024991374        4.0425325329
 H         -1.5183462461       -1.7846277476        2.5616985111
 H         -2.1247064050       -2.8714180388        0.5198263773
 C         -0.9924874568       -3.1175840341       -1.2500807529
 C         -1.9331111284       -3.3860537227       -2.3859038866
 C         -0.6938951596       -2.5763389188       -2.6146063252
 H          0.1142286173       -3.0273501612       -3.1722423092
 H         -0.7929962301       -1.5144808915       -2.7742380069
 H         -1.9818698533       -4.3845273399       -2.7931973361
 H         -2.8825154592       -2.8705295962       -2.3727152699
 H         -0.3833692152       -3.9536057823       -0.9192581150
