  62
        -98.92715016
 C         -2.5016896743       -0.7000089414        0.4927459076
 C         -2.8533186760        0.6731451848        0.4433673546
 C         -4.1560545621        0.9989414338       -0.1492423650
 C         -4.9291930333        0.0089107716       -0.6293915170
 C         -6.2602649799        0.1552319442       -1.3186754580
 C         -7.4140757595        0.7146179119       -0.4644009214
 C         -7.6037993636        2.2325924698       -0.5740243030
 H         -7.1887100162        2.5704001148       -1.5243788697
 H         -8.6731625116        2.4514357214       -0.6037719793
 C         -7.0094457189        3.0633930169        0.5672061342
 H         -7.6673092667        2.9968987260        1.4368101507
 H         -6.9928370609        4.1074058501        0.2469542054
 C         -5.6061532443        2.6633098541        1.0232573571
 H         -5.6602640493        1.7491507279        1.6192602152
 H         -5.2286613839        3.4426715870        1.6882205444
 C         -4.5988191708        2.4329258031       -0.1200638509
 H         -5.0303583076        2.7203788210       -1.0777392481
 H         -3.7013710561        3.0318245402        0.0471012223
 H         -7.2717589419        0.4216524111        0.5754680376
 H         -8.3279125776        0.2314098953       -0.8138593706
 H         -6.5225616045       -0.8490873586       -1.6577250051
 H         -6.1281619281        0.7817298622       -2.2038600450
 O         -4.5503205954       -1.2957513309       -0.5790968064
 C         -3.3401781095       -1.6911132425       -0.0192568054
 O         -3.1581227089       -2.9212936003       -0.0512506705
 O         -2.1048668175        1.5887144987        0.8803835912
 C         -1.1584845821       -1.0290476582        1.1185867730
 C         -0.0701880263       -1.0460478215        0.0748544638
 C         -0.1986149975       -1.7956908323       -1.0900460178
 C          0.8135115362       -1.8026258803       -2.0327536316
 C          1.9659527001       -1.0613552513       -1.8395248837
 C          2.1030075395       -0.3061737334       -0.6826231396
 C          1.0887695062       -0.3089458888        0.2680123007
 H          1.1928130681        0.2890491614        1.1633399149
 N          3.2586188766        0.4707519322       -0.4905951878
 S          4.7446220201       -0.2357722544       -0.8782102771
 O          4.9479702003       -0.1232013441       -2.3004681292
 O          4.8088205537       -1.5738124121       -0.3344095225
 C          5.8699162710        0.8438938438       -0.0169292913
 C          6.2868979015        2.0058851466       -0.6378691931
 C          7.1420355332        2.8581214480        0.0424937745
 C          7.5626754719        2.5365964769        1.3244933032
 C          7.1367137324        1.3658898131        1.9339091056
 C          6.2805301185        0.5095168053        1.2597561112
 H          5.9329740085       -0.4158134270        1.6908279009
 H          7.4682684135        1.1171714826        2.9292085404
 H          8.2294846774        3.2008843378        1.8511643020
 H          7.4779562415        3.7678024134       -0.4284900244
 H          5.9414782613        2.2095719123       -1.6379551241
 H          3.2841764312        0.9007111527        0.4239581015
 H          2.7610184126       -1.0618704855       -2.5676608975
 H          0.7040796139       -2.3922262588       -2.9309783173
 H         -1.0958397077       -2.3761608984       -1.2450704949
 H         -0.9519254735       -0.1807214999        1.7906252737
 C         -1.1791999457       -2.2863556100        1.9762200021
 C         -0.4985239357       -3.5642797879        1.5997092662
 C          0.0602418950       -2.7194325235        2.7025964241
 H         -0.0291804451       -3.0662822503        3.7207939947
 H          0.9717681074       -2.1782115036        2.4963856190
 H         -0.9988945525       -4.4874953195        1.8485767640
 H          0.0397883865       -3.6031853064        0.6658342542
 H         -2.1162429584       -2.3886376929        2.5142393484
