  62
        -98.94871288
 C         -1.4870101163       -1.3762770704       -0.3548731512
 C         -0.3745953764       -1.6706385100       -1.1774033714
 C          0.5975819337       -2.6191188598       -0.6245909810
 C          0.4201497279       -3.1073781932        0.6163831424
 C          1.3028269880       -4.1112723255        1.3078593220
 C          2.5419875354       -3.4998239027        1.9745562371
 C          3.6470476231       -3.0639076562        1.0122971345
 H          4.5411227485       -2.8853485139        1.6132898245
 H          3.8734630741       -3.8791512757        0.3239982859
 C          3.3276592416       -1.7884523473        0.2201464714
 H          4.2046859400       -1.1356155509        0.2317616418
 H          2.5187401361       -1.2425030828        0.7139812538
 C          2.9583306204       -2.0202371423       -1.2455939101
 H          3.8268405876       -2.4082151390       -1.7832096669
 H          2.6876592480       -1.0567347051       -1.6848375235
 C          1.7854134153       -2.9831373294       -1.4639772183
 H          1.4812844105       -2.9154218984       -2.5116193067
 H          2.0953968183       -4.0070703192       -1.2548520770
 H          2.9531759483       -4.2519408600        2.6523212985
 H          2.2284188416       -2.6428725426        2.5762835969
 H          1.6117458018       -4.8792323578        0.5974940801
 H          0.6906854354       -4.5792332753        2.0819819760
 O         -0.6340027690       -2.7554274841        1.3989091243
 C         -1.6016830789       -1.8732024085        0.9430997021
 O         -2.5029926346       -1.6303609452        1.7694175097
 O         -0.2101701787       -1.1751380594       -2.3254364869
 C         -2.5514389563       -0.4198302826       -0.8643674629
 C         -2.5887984071        0.7931771585        0.0307154271
 C         -3.7461205442        1.3072682838        0.5987848556
 C         -3.6775497035        2.3891953317        1.4603567265
 C         -2.4643061265        2.9719516683        1.7753715836
 C         -1.3018620620        2.4763846948        1.1932399745
 C         -1.3769750152        1.4133153699        0.3100995117
 H         -0.4732497868        1.0213929548       -0.1337114606
 N         -0.0576445329        3.0637350560        1.4585050680
 S          1.3747800622        2.2320963853        1.2715630726
 O          1.2570653974        0.8353801559        1.6250280917
 O          2.3348965848        2.9908284778        2.0473743272
 C          1.7877561898        2.4044409617       -0.4540131163
 C          2.9093205243        1.7302844812       -0.8946057678
 C          3.2929884704        1.8487244187       -2.2205146575
 C          2.5512814980        2.6410577270       -3.0825832847
 C          1.4324319874        3.3179059251       -2.6242090476
 C          1.0446307936        3.2044821428       -1.2978094446
 H          0.1748450779        3.7171307691       -0.9220134529
 H          0.8557197227        3.9333419382       -3.2959157688
 H          2.8462782924        2.7290250754       -4.1162702175
 H          4.1641056519        1.3209872379       -2.5748159074
 H          3.4546601072        1.1225543274       -0.1906272789
 H         -0.0311614684        3.7349516320        2.2103306660
 H         -2.4106779047        3.7987673642        2.4668864197
 H         -4.5822036099        2.7742496416        1.9060157967
 H         -4.6985988526        0.8518986769        0.3837252050
 H         -2.2097171116       -0.1059240164       -1.8618747220
 C         -3.8851920385       -1.1223648434       -0.9995559335
 C         -4.8923468904       -0.6418972017       -2.0002425030
 C         -4.1594137826       -1.9278057484       -2.2329279327
 H         -4.6987444840       -2.8575198508       -2.1310830451
 H         -3.3899521223       -1.9509949692       -2.9906670005
 H         -5.9393553851       -0.6900021334       -1.7418761495
 H         -4.6253465829        0.2094428753       -2.6075056880
 H         -4.2447915701       -1.5159376616       -0.0554114960
