  62
        -98.94048771
 C         -2.3165340963       -0.7691509304        0.1510080010
 C         -3.0897310848       -0.0863453174        1.1269538174
 C         -3.9903582583        0.9633950893        0.6354780037
 C         -4.0256847911        1.2306427754       -0.6823000628
 C         -4.9355868874        2.2314930958       -1.3320087193
 C         -6.2568635749        1.5807509600       -1.7651143706
 C         -6.9208183010        0.7433301752       -0.6719810294
 H         -7.8579692307        0.3595063953       -1.0809533752
 H         -6.2891990296       -0.1203977815       -0.4515804835
 C         -7.2051356247        1.5073339660        0.6287943679
 H         -7.1749689865        2.5813184128        0.4417527040
 H         -8.2159928361        1.2648086397        0.9632277761
 C         -6.2605056112        1.1675327625        1.7831976872
 H         -6.2173132797        0.0834330948        1.9146847246
 H         -6.6782155258        1.5916890797        2.7000563535
 C         -4.8259267919        1.6935762329        1.6488894427
 H         -4.8452544845        2.7635438709        1.4320583601
 H         -4.3261856058        1.5458779298        2.6106071989
 H         -6.9399253720        2.3685096554       -2.0879291328
 H         -6.0585894599        0.9313023595       -2.6210056484
 H         -5.1299493377        3.0435613307       -0.6340722752
 H         -4.4326593223        2.6334221912       -2.2132259769
 O         -3.2573321137        0.5742753551       -1.5864194580
 C         -2.3865732842       -0.4397735114       -1.2029387274
 O         -1.7554973880       -0.9349645518       -2.1564780814
 H          0.1776044361       -0.4348420080       -0.9961855837
 C          0.6636305140       -0.6322540750       -0.0515743665
 C         -0.0102004101       -1.3587368815        0.9205383770
 C          0.6359700019       -1.6171141593        2.1233985021
 C          1.9237300717       -1.1594665024        2.3431037884
 C          2.5906376805       -0.4347469300        1.3718078760
 C          1.9537311947       -0.1707574168        0.1660788215
 N          2.6178586908        0.5751505092       -0.8250206899
 S          4.1396871779        0.0432938164       -1.3018489649
 O          4.3208775159        0.5524732956       -2.6433525543
 O          4.2754117787       -1.3849557562       -1.1313088735
 C          5.2504327089        0.8983170691       -0.2038491183
 C          6.1566055923        0.1840696640        0.5552259830
 C          7.0166591461        0.8737744395        1.3958555961
 C          6.9557507102        2.2573286322        1.4614192207
 C          6.0416478081        2.9599016862        0.6901201848
 C          5.1803143082        2.2768190290       -0.1534276009
 H          4.4580477878        2.7838081195       -0.7714792984
 H          5.9971701493        4.0357931420        0.7436489894
 H          7.6247295961        2.7917516666        2.1172761232
 H          7.7283212215        0.3297571686        1.9958195362
 H          6.1629831236       -0.8912814097        0.4754679298
 H          2.0420674138        0.7567064747       -1.6352834633
 H          3.5928330451       -0.0746076455        1.5371562394
 H          2.4132804808       -1.3669896242        3.2822081770
 H          0.1179517731       -2.1717985185        2.8919289413
 C         -1.4044126528       -1.8706497444        0.6620623567
 H         -1.8337585949       -2.1566827837        1.6353315486
 C         -1.4185180723       -3.1125587616       -0.2200217675
 C         -0.2581514990       -3.5579553419       -1.0538613484
 C         -0.6320617645       -4.3271908855        0.1754945245
 H         -1.0871370962       -5.2993199142        0.0619151217
 H          0.0200597492       -4.2394377365        1.0313429853
 H         -0.4739893318       -3.9819296854       -2.0229399333
 H          0.6487714084       -2.9730116264       -1.0350358903
 H         -2.4016306169       -3.2906011567       -0.6449478074
 O         -3.0307139258       -0.3519239973        2.3569515312
