  62
        -98.94087510
 C         -2.5900600440       -0.1866153658        0.6066475378
 C         -2.4478432845        0.4376227570       -0.6582711823
 C         -2.2067551478        1.8858016817       -0.6345756823
 C         -2.0802775106        2.5276372789        0.5395301685
 C         -1.7937584051        3.9928781282        0.7229940424
 C         -0.3041396634        4.3440089687        0.6003390323
 C          0.2552067776        4.3373906258       -0.8233711480
 H         -0.3977600544        4.9204795086       -1.4741463917
 H          1.2200546111        4.8471664518       -0.7862993444
 C          0.4657580883        2.9378284588       -1.4180623300
 H          1.4348790204        2.9045193637       -1.9226081159
 H          0.5032612739        2.1980721867       -0.6143715401
 C         -0.5834708328        2.5146529454       -2.4465677748
 H         -0.4961307753        3.1420500080       -3.3372585365
 H         -0.3779253410        1.4812319469       -2.7373202135
 C         -2.0319567115        2.5845202574       -1.9494860816
 H         -2.6655181993        2.0752435480       -2.6803931176
 H         -2.3533959856        3.6229606915       -1.8703516888
 H         -0.1707375231        5.3455026688        1.0167346079
 H          0.2698048302        3.6459472037        1.2154161403
 H         -2.3695726716        4.5758376501        0.0032921461
 H         -2.1287324667        4.2522231268        1.7296809327
 O         -2.2112136999        1.8930947791        1.7355976177
 C         -2.4335110753        0.5275407916        1.7960581675
 O         -2.4772216744        0.0698338002        2.9583116176
 O         -2.5140419091       -0.1683292256       -1.7584873860
 C         -2.7014911624       -1.6980638065        0.7343035511
 C         -1.6143208430       -2.3198941155       -0.1106864842
 C         -1.8107087496       -3.3410178389       -1.0285317968
 C         -0.7439727337       -3.8202244099       -1.7716269475
 C          0.5236005122       -3.2886330849       -1.6279553251
 C          0.7281362212       -2.2576976428       -0.7146586909
 C         -0.3316273732       -1.8094223794        0.0515017389
 H         -0.1663199144       -1.0236549588        0.7747871766
 N          1.9850389173       -1.6405569481       -0.5985380445
 S          2.3787401645       -0.7163836224        0.7496205285
 O          2.3075114095       -1.5245111981        1.9493069669
 O          1.6023103189        0.4972554880        0.7469597417
 C          4.0774005563       -0.3384774362        0.3657327953
 C          5.0878258850       -1.1287382396        0.8799362346
 C          6.4015994102       -0.8369901123        0.5476587532
 C          6.6805287071        0.2323722590       -0.2900824497
 C          5.6557493888        1.0179507591       -0.7967492499
 C          4.3403735048        0.7318184237       -0.4679008093
 H          3.5099750301        1.3172091811       -0.8278736466
 H          5.8761536154        1.8509432932       -1.4445804217
 H          7.7034727053        0.4574720729       -0.5471861831
 H          7.2006893842       -1.4429656516        0.9431024672
 H          4.8238082470       -1.9423600687        1.5362742892
 H          2.7539713660       -2.2204776253       -0.9028586833
 H          1.3455464070       -3.6512912451       -2.2257478628
 H         -0.9068623766       -4.6149711642       -2.4839209307
 H         -2.7974991267       -3.7471309303       -1.1792001136
 H         -2.4569560078       -1.9067588016        1.7904635527
 C         -4.0858189474       -2.2772861828        0.4905327673
 C         -5.3132189066       -1.4289769078        0.6372009877
 C         -4.9059427222       -1.9301935470       -0.7140292168
 H         -5.4996173964       -2.7104008554       -1.1678869146
 H         -4.4816536141       -1.2326097418       -1.4176541573
 H         -6.1818772304       -1.8612518565        1.1111865620
 H         -5.1694674611       -0.3810036127        0.8589668852
 H         -4.1650674833       -3.2971652999        0.8552355881
