  62
        -98.94576198
 C         -2.5016864073        0.0566825783        0.5659193324
 C         -2.4638215141        0.8456065020       -0.6088110047
 C         -1.9783186078        2.2201321711       -0.4403323634
 C         -1.5429729672        2.6323466631        0.7633530429
 C         -0.9861726653        3.9925236674        1.0858684988
 C          0.4941382137        4.1535417821        0.7123119078
 C          0.7748899386        4.3259931303       -0.7814956024
 H          0.1174771284        5.0950044671       -1.1893621664
 H          1.8001589091        4.6905385979       -0.8719256454
 C          0.6403209471        3.0364793830       -1.6030153754
 H          1.4837787771        2.9599426543       -2.2940984672
 H          0.6929062698        2.1721219588       -0.9374465641
 C         -0.6326292484        2.9409439533       -2.4438382658
 H         -0.6120877857        3.7005395311       -3.2295922518
 H         -0.6510042976        1.9580935745       -2.9216141692
 C         -1.9347873160        3.1033239568       -1.6516865470
 H         -2.0699038253        4.1451981605       -1.3609205871
 H         -2.7644119627        2.8096907792       -2.3002725971
 H          1.0416133412        3.2833373170        1.0842241321
 H          0.8684268679        5.0361575366        1.2368785900
 H         -1.5770883597        4.7616816408        0.5869401838
 H         -1.0873686481        4.1212407241        2.1657372205
 O         -1.5781877257        1.8377476023        1.8669996550
 C         -2.0420198896        0.5362838084        1.7923305076
 O         -2.0134122037       -0.0825368977        2.8784497606
 H         -0.3214991707       -1.4635516929        1.0059039860
 C         -0.5369862840       -1.9770258167        0.0786577395
 C         -1.8558250535       -2.1048129599       -0.3413386190
 C         -2.1155964375       -2.7932150544       -1.5176988634
 C         -1.0698332068       -3.2993443499       -2.2723327073
 C          0.2438546945       -3.1114162332       -1.8853817461
 C          0.5114750452       -2.4433012434       -0.6941504450
 N          1.8288843938       -2.2368852704       -0.2533628043
 S          2.1513865562       -0.8510253080        0.6601464741
 O          1.9744679376       -1.1776071024        2.0542532674
 O          1.4040888483        0.2778282077        0.1585446120
 C          3.8885418216       -0.6347193352        0.3188398764
 C          4.2870783151        0.3352882035       -0.5808753140
 C          5.6379347485        0.4779610535       -0.8579801413
 C          6.5610426454       -0.3496087074       -0.2368471752
 C          6.1457013354       -1.3187356992        0.6647049698
 C          4.7971499862       -1.4653690311        0.9478286064
 H          4.4273847000       -2.1952688207        1.6490279273
 H          6.8664613402       -1.9582301483        1.1480302256
 H          7.6113088337       -0.2367010986       -0.4543979266
 H          5.9633430307        1.2331275713       -1.5551003142
 H          3.5323510927        0.9587527039       -1.0333459915
 H          2.5202029493       -2.3905136596       -0.9742933441
 H          1.0565895067       -3.4755301295       -2.4951520178
 H         -1.2823283194       -3.8262812297       -3.1902428004
 H         -3.1316908659       -2.9149499991       -1.8547934650
 C         -2.9049287188       -1.4085791552        0.4926231186
 H         -2.8403515486       -1.7941558111        1.5206420649
 C         -4.3194685788       -1.5807591211       -0.0131842924
 C         -5.0770377449       -2.8330960271        0.3079982093
 C         -5.4514071901       -1.5405933424        0.9671745682
 H         -6.3703765191       -1.0565967845        0.6727418940
 H         -5.2008459996       -1.4040996218        2.0094273898
 H         -5.7437116918       -3.2386725591       -0.4376711653
 H         -4.5757250094       -3.5792877200        0.9058779627
 H         -4.4785236190       -1.1164678887       -0.9787837849
 O         -2.8254290276        0.4342057783       -1.7427239773
