  62
        -98.94360640
 C         -1.8185532046       -0.3320256175       -0.2885154083
 C         -2.9737397404       -0.6301226427       -1.0490179620
 C         -4.2463435134       -0.6171339360       -0.3156884308
 C         -4.2414988128       -0.3521947704        1.0038359477
 C         -5.4686715445       -0.2616121985        1.8630861050
 C         -6.0049192672        1.1757158634        1.9173116037
 C         -6.1504036111        1.8327441908        0.5447278525
 H         -6.5648732310        2.8305449717        0.7040236213
 H         -5.1589941554        1.9628131780        0.1049338248
 C         -7.0417415714        1.0602081839       -0.4376781462
 H         -7.6655789202        0.3504453116        0.1068228735
 H         -7.7114524786        1.7663642287       -0.9330948322
 C         -6.2790802389        0.3222350238       -1.5395346614
 H         -7.0005250425       -0.0016797267       -2.2945005521
 H         -5.5828242406        1.0095400359       -2.0267096294
 C         -5.4969162861       -0.9193056563       -1.0926060687
 H         -5.1693563653       -1.4473851519       -1.9931104411
 H         -6.1531225837       -1.5830520941       -0.5257687529
 H         -6.9728397324        1.1639467906        2.4217165153
 H         -5.3173387196        1.7789927799        2.5144124055
 H         -6.2316207237       -0.9306162981        1.4697058551
 H         -5.2048660801       -0.5798876075        2.8730457387
 O         -3.1089907568       -0.0886989074        1.7041236681
 C         -1.8704030665       -0.0636110411        1.0794917192
 O         -0.9177300116        0.2011543168        1.8356539772
 O         -2.9407202066       -0.9010672193       -2.2802957223
 C         -0.4673376021       -0.3179314559       -0.9782970467
 C          0.4667171997       -1.3149217316       -0.3382247660
 C         -0.0058787036       -2.5896180136       -0.0348485543
 C          0.8180833384       -3.5271870055        0.5552720674
 C          2.1375401818       -3.2213777248        0.8399671114
 C          2.6245071315       -1.9588767258        0.5278366228
 C          1.7899095853       -1.0146919622       -0.0559328531
 H          2.1879739554       -0.0421382701       -0.2912868052
 N          3.9512975033       -1.6121802625        0.8175449950
 S          4.8275569979       -0.6550970443       -0.2349383096
 O          4.4732575200       -0.9105298269       -1.6116008455
 O          6.2101996092       -0.9016871344        0.1170869917
 C          4.4159101785        1.0201875645        0.2053197703
 C          4.3737976588        1.9760830150       -0.7904106633
 C          4.0997947473        3.2910859269       -0.4480198199
 C          3.8735061557        3.6253869066        0.8780789615
 C          3.9217424674        2.6538303473        1.8662410395
 C          4.1999376303        1.3382745132        1.5313238856
 H          4.2390135206        0.5596866495        2.2746237019
 H          3.7408538692        2.9163170463        2.8962093663
 H          3.6566307636        4.6483667702        1.1426525637
 H          4.0620229213        4.0479940892       -1.2155144353
 H          4.5437559389        1.6695975860       -1.8104205318
 H          4.5130536365       -2.3506893497        1.2146755693
 H          2.7831801393       -3.9529155387        1.3016937006
 H          0.4332233536       -4.5079776087        0.7915383165
 H         -1.0348204006       -2.8333716144       -0.2624275233
 H         -0.6608912513       -0.6493153503       -2.0100732060
 C          0.0853806920        1.0917230810       -1.0163005291
 C          0.9860841864        1.5253611024       -2.1327066423
 C         -0.4199699785        2.0382196750       -2.0621881455
 H         -0.5796913128        3.0706257119       -1.7901795666
 H         -1.1420566789        1.6552972632       -2.7686895173
 H          1.7915338723        2.2070540833       -1.9050817332
 H          1.2285516680        0.7972932489       -2.8923793103
 H          0.2702198160        1.4912393775       -0.0251325528
