  62
        -98.94626758
 C          1.1925695572        1.7486397760       -0.1915660647
 C          1.3532209444        0.6212763317       -1.0358350966
 C          2.6854804119       -0.0064305828       -1.0216135794
 C          3.6550374059        0.5005365134       -0.2410492135
 C          5.0292007147       -0.0818412362       -0.0840045466
 C          5.0784371888       -1.0817924497        1.0794031463
 C          3.9585750884       -2.1228346581        1.0515413870
 H          4.1183619901       -2.7956458389        1.8972935317
 H          2.9973968867       -1.6295034839        1.2167030627
 C          3.8826619642       -2.9419230910       -0.2442133933
 H          4.8255610165       -2.8655117400       -0.7882593900
 H          3.7401395512       -3.9930528493        0.0156765954
 C          2.7273342633       -2.5541076265       -1.1692725548
 H          1.7937038915       -2.5405230262       -0.5993947336
 H          2.6314642008       -3.3310165137       -1.9337006837
 C          2.8833445667       -1.2119858351       -1.8965103497
 H          3.8566586839       -1.1738351382       -2.3911134359
 H          2.1050947012       -1.1572785934       -2.6634684750
 H          6.0456573869       -1.5875734711        1.0593313978
 H          5.0044317372       -0.5263378310        2.0172761670
 H          5.3190435502       -0.5727976477       -1.0109683838
 H          5.7265658968        0.7327087205        0.1194537255
 O          3.4727386521        1.5954739418        0.5407081394
 C          2.2434210086        2.2292780730        0.5948844061
 O          2.2114303400        3.2117068805        1.3646757304
 H         -0.5739342976       -0.1322349326        0.4516714976
 C         -1.1171548427        0.5042979908        1.1308624352
 C         -0.9776718777        1.8811562941        1.0498477596
 C         -1.6716348945        2.6775383453        1.9537562778
 C         -2.4848363661        2.1044036791        2.9146050476
 C         -2.6333484400        0.7308655843        2.9837797288
 C         -1.9402047646       -0.0746201492        2.0865663493
 N         -2.0623637927       -1.4669701950        2.1328072490
 S         -1.7729701981       -2.4095767747        0.7870453094
 O         -2.4891927449       -3.6391977994        1.0656642672
 O         -0.3544281571       -2.5573895536        0.5813573487
 C         -2.5401870070       -1.5802106697       -0.5937800917
 C         -3.7467175186       -0.9341542739       -0.4075040613
 C         -4.3397341211       -0.2992040135       -1.4858975610
 C         -3.7244910399       -0.3276641209       -2.7282060392
 C         -2.5228773517       -0.9948410030       -2.9017928152
 C         -1.9220392911       -1.6282926115       -1.8254327666
 H         -0.9730494541       -2.1302914953       -1.9177031282
 H         -2.0385225587       -1.0137644204       -3.8647350281
 H         -4.1830544705        0.1745995456       -3.5656731141
 H         -5.2750712153        0.2202049223       -1.3528121615
 H         -4.2063530441       -0.9239440719        0.5672839739
 H         -2.7893901164       -1.8332246553        2.7278981235
 H         -3.2700112732        0.2817545748        3.7304225601
 H         -3.0132713435        2.7325905389        3.6152303135
 H         -1.5579269007        3.7501160541        1.9095218281
 C         -0.1175638007        2.5003171686       -0.0271532442
 H          0.1560516959        3.5121240577        0.3034931278
 C         -0.9319304211        2.6141084662       -1.3027328255
 C         -1.8514478613        3.7822245565       -1.4858778348
 C         -0.5970103908        3.6802041603       -2.2997171281
 H         -0.6740230757        3.4424758840       -3.3496749428
 H          0.2211202907        4.3451946073       -2.0626646325
 H         -2.7974107413        3.6170824033       -1.9773799470
 H         -1.8846850572        4.5258704387       -0.7043761601
 H         -1.2524578590        1.6551502169       -1.6886098766
 O          0.4534980390        0.1445159975       -1.7745936831
