  62
        -98.94023952
 C         -2.4451022759       -0.9199798942       -0.0229666384
 C         -2.6570222501        0.4537172547        0.2458520603
 C         -4.0303673963        0.8236792503        0.6118807760
 C         -4.9795769812       -0.1259589854        0.6993156066
 C         -6.4168337279        0.0910710199        1.0887204003
 C         -7.3184314274        0.5361888855       -0.0708310251
 C         -7.1109941615        1.9768629893       -0.5394688900
 H         -7.9461522786        2.2226975520       -1.1983101191
 H         -7.1642344879        2.6480671278        0.3181992536
 C         -5.7980674025        2.2125415174       -1.2991988425
 H         -5.3896394385        1.2541290058       -1.6281427594
 H         -5.9977218576        2.8000025448       -2.1982635198
 C         -4.7280285294        2.9570734736       -0.5004865890
 H         -3.8304652975        3.0348810052       -1.1194915520
 H         -5.0734122178        3.9695206595       -0.2797130480
 C         -4.3354186285        2.2767295343        0.8175430149
 H         -5.1281688118        2.3995584925        1.5551380751
 H         -3.4275190587        2.7546679193        1.1937401479
 H         -7.1688173836       -0.1456320079       -0.9111132644
 H         -8.3533038352        0.4306540679        0.2627168763
 H         -6.7847595191       -0.8668701540        1.4623684858
 H         -6.4709446145        0.8230403532        1.8949725289
 O         -4.7266866181       -1.4404215329        0.4574153407
 C         -3.4648917106       -1.8659514320        0.0757394272
 O         -3.3770590468       -3.0934756123       -0.1327451070
 O         -1.7507263768        1.3251113357        0.1888170976
 C         -1.0675507015       -1.4051663211       -0.4335622952
 C         -0.0456782626       -1.0467359606        0.6183448704
 C         -0.3252714804       -1.3251219956        1.9542980371
 C          0.5907418075       -1.0287927796        2.9443756892
 C          1.8134456278       -0.4649956090        2.6238908174
 C          2.1035476602       -0.1855653016        1.2944179629
 C          1.1764895662       -0.4762057932        0.3023768458
 H          1.4309864026       -0.2490325619       -0.7190758414
 N          3.3259101503        0.4059153428        0.9369352744
 S          4.0433447226       -0.0479761487       -0.5222651177
 O          3.4697389806        0.7285955552       -1.5920873228
 O          3.9894795074       -1.4846182147       -0.6744676681
 C          5.7221086628        0.4802697126       -0.2314026264
 C          6.0412503139        1.8118805204       -0.4199571544
 C          7.3369323748        2.2325866394       -0.1656879727
 C          8.2865278954        1.3206151230        0.2709375728
 C          7.9521481847       -0.0128168040        0.4534578522
 C          6.6577490803       -0.4401009746        0.2021378264
 H          6.3544820907       -1.4678427426        0.3214652223
 H          8.6935009657       -0.7198435226        0.7893138660
 H          9.2944598901        1.6506854207        0.4669207137
 H          7.6013710705        3.2677622400       -0.3096446256
 H          5.2724631212        2.4818363712       -0.7683661803
 H          3.9940499540        0.4176789872        1.6953265246
 H          2.5313597419       -0.2365225131        3.3969754957
 H          0.3555120938       -1.2466497579        3.9754829287
 H         -1.2768466731       -1.7756345591        2.2042277932
 H         -1.1307365733       -2.5029854286       -0.4815137684
 C         -0.7197279345       -0.8799220950       -1.8109019185
 C          0.2207558829       -1.6413901216       -2.6942011917
 C         -1.2411945279       -1.5939055228       -3.0200257766
 H         -1.5624108550       -1.0071990382       -3.8675583205
 H         -1.8316422088       -2.4833286639       -2.8532676260
 H          0.9104374977       -1.0850124410       -3.3118926102
 H          0.6297703096       -2.5643638609       -2.3105612394
 H         -0.6835246038        0.2035685071       -1.8458681219
