  62
        -98.94466789
 C          1.9869728489        0.7665244421        0.5659728524
 C          1.9725196607        0.0705305639       -0.6666440921
 C          2.0794237352       -1.3895636819       -0.5739916244
 C          2.1168469111       -1.9820938315        0.6328133293
 C          2.1826753906       -3.4634246386        0.8906416010
 C          3.6009669766       -4.0478205710        0.8298672129
 C          4.2029237497       -4.1528420911       -0.5719450911
 H          5.0979300984       -4.7726001762       -0.4897845536
 H          3.5037998481       -4.6733934185       -1.2269601392
 C          4.5909121857       -2.8056724590       -1.1970375235
 H          5.5870046792       -2.8822935076       -1.6384731477
 H          4.6431689692       -2.0435818510       -0.4161846562
 C          3.6445143609       -2.3211303395       -2.2955096829
 H          3.6794823681       -3.0116286825       -3.1409553046
 H          3.9922483470       -1.3447848494       -2.6419671914
 C          2.1842498518       -2.1706811595       -1.8485533100
 H          1.6391543990       -1.6172298323       -2.6172034749
 H          1.7199717126       -3.1499448329       -1.7323254745
 H          3.5572661230       -5.0510379845        1.2599575809
 H          4.2536173644       -3.4423634713        1.4629029473
 H          1.5385537356       -3.9841129346        0.1811937964
 H          1.7861785257       -3.6196483675        1.8964756375
 O          2.0817219994       -1.2790938799        1.7976867069
 C          2.0244702139        0.1051889102        1.7916755602
 O          2.0150621859        0.6247942616        2.9282191225
 O          1.8808722558        0.6386965544       -1.7865931214
 C          1.8582347994        2.2791743219        0.5777406336
 C          0.5686597829        2.6691241351       -0.1045062850
 C          0.4660645873        3.7040864557       -1.0245169109
 C         -0.7452347591        3.9748792204       -1.6379658791
 C         -1.8681902441        3.2188599665       -1.3583823415
 C         -1.7799518104        2.1944851782       -0.4214710042
 C         -0.5738488581        1.9437121739        0.2092666850
 H         -0.5157823488        1.1441995224        0.9349435485
 N         -2.9057943498        1.4200593273       -0.0881483826
 S         -2.6658622282       -0.1984838441        0.3311823720
 O         -2.2998080245       -0.2672025644        1.7250597881
 O         -1.7690263505       -0.8398149454       -0.6037014604
 C         -4.3254052447       -0.8192683275        0.1238119827
 C         -5.2551801463       -0.5611600754        1.1136202898
 C         -6.5554651744       -1.0095144048        0.9446507750
 C         -6.9028671220       -1.7043241167       -0.2046226555
 C         -5.9587095076       -1.9574578433       -1.1881840240
 C         -4.6565388249       -1.5102015030       -1.0262101752
 H         -3.8861838918       -1.6880582804       -1.7594887496
 H         -6.2303437128       -2.5003262641       -2.0791093425
 H         -7.9152896169       -2.0530065099       -0.3332274975
 H         -7.2913155313       -0.8165209462        1.7084369095
 H         -4.9348243179       -0.0261925227        1.9924032722
 H         -3.6593447519        1.5197357703       -0.7552425165
 H         -2.8049633277        3.4163426875       -1.8567655261
 H         -0.8105065364        4.7761383903       -2.3583911433
 H          1.3368227777        4.2886341758       -1.2725148183
 H          1.7896557125        2.5720800468        1.6363108603
 C          3.0861016055        2.9222382944       -0.0324839525
 C          3.5360687391        4.2772995516        0.4220096315
 C          4.3203980642        3.0595615393        0.8055051227
 H          5.2805639590        2.8936683863        0.3406276705
 H          4.2639768757        2.7121283266        1.8272161113
 H          3.9629846355        4.9501126939       -0.3063074805
 H          2.9542702834        4.7655082728        1.1891701480
 H          3.2154277804        2.6589029539       -1.0759584386
