  62
        -98.94041596
 C         -2.0671202215       -1.0206378079        0.5411302821
 C         -2.7735277084       -0.0432329441        1.2887087857
 C         -4.1888964527        0.1377398954        0.9531766190
 C         -4.7470241608       -0.6250202563       -0.0040505003
 C         -6.1852300993       -0.5842019484       -0.4442977176
 C         -6.4892340472        0.5041751644       -1.4827890426
 C         -6.4937603690        1.9348729087       -0.9428320817
 H         -6.9310137225        2.5682707517       -1.7172741328
 H         -7.1457032882        1.9909997992       -0.0705008417
 C         -5.1043051427        2.4814096637       -0.5856333510
 H         -4.3364324374        1.8643920080       -1.0582626202
 H         -4.9945613593        3.4905861106       -0.9892143247
 C         -4.8195556724        2.5608513878        0.9143645017
 H         -5.4966054298        3.2817363066        1.3782284844
 H         -3.7972107380        2.9237132651        1.0493726004
 C         -4.9487427831        1.2227962141        1.6540198574
 H         -4.5185394712        1.3394120732        2.6518196668
 H         -5.9987613756        0.9488497050        1.7553592270
 H         -5.7636286857        0.4242700638       -2.2955143476
 H         -7.4774421515        0.2920728942       -1.8974325977
 H         -6.4010833332       -1.5567207593       -0.8919928758
 H         -6.8306527590       -0.4504866118        0.4243454962
 O         -4.0440975805       -1.5639685587       -0.6870170632
 C         -2.6856623704       -1.7683574089       -0.4620746651
 O         -2.1840277576       -2.6292489715       -1.2063541583
 H          1.3008064416        0.5262822203        1.7357339800
 C          1.1995955865        0.5440567036        0.6590168449
 C          0.2534601018       -0.2665445953        0.0492767062
 C          0.1252830559       -0.2179320275       -1.3352346591
 C          0.9212345930        0.6291930680       -2.0847772683
 C          1.8634923656        1.4374306854       -1.4726206690
 C          2.0035523733        1.3916067440       -0.0923894061
 N          2.9895963247        2.1865571935        0.5264859482
 S          4.5662592890        1.8995733143        0.0248151523
 O          5.4067862134        2.4008050050        1.0878130570
 O          4.7651794006        2.4843008179       -1.2762367245
 C          4.6602059808        0.1217249443       -0.0734053917
 C          4.4585191485       -0.5072476971       -1.2853549816
 C          4.4222065958       -1.8920490677       -1.3221882354
 C          4.5871385550       -2.6198000323       -0.1543917109
 C          4.7992368910       -1.9731706836        1.0537231355
 C          4.8289801863       -0.5889114806        1.0986011466
 H          4.9918162797       -0.0492113832        2.0179883015
 H          4.9311576121       -2.5429403363        1.9594818629
 H          4.5467287282       -3.6967372494       -0.1849632935
 H          4.2579452364       -2.3981592985       -2.2597990110
 H          4.3380756466        0.0931030881       -2.1717886089
 H          2.9405476422        2.1701141742        1.5354822925
 H          2.4966185212        2.0987241281       -2.0419549402
 H          0.8079706226        0.6598718327       -3.1579420549
 H         -0.6005158160       -0.8570385003       -1.8153040079
 C         -0.5975984481       -1.1925782809        0.8797098192
 H         -0.5160786952       -0.8611574637        1.9272488052
 C         -0.1189155224       -2.6369381529        0.8217755470
 C          0.8752104674       -3.1409265113       -0.1771811770
 C          1.2769371011       -2.9751439660        1.2553943433
 H          1.4317360491       -3.8562456589        1.8588821539
 H          1.9351847562       -2.1526571192        1.4926375132
 H          0.7258988860       -4.1359599117       -0.5666121976
 H          1.2732795540       -2.4460507615       -0.8996184084
 H         -0.9001129516       -3.3319820666        1.1108335300
 O         -2.2410998096        0.6398551391        2.2050396747
