  62
        -98.93654613
 C         -2.1555143417       -0.9650701073       -0.0995579392
 C         -2.8985951207       -0.2854885924        0.8931798338
 C         -3.7244802888        0.8361608355        0.4263344387
 C         -3.7043142316        1.1792388407       -0.8744559654
 C         -4.4399940393        2.3274824081       -1.5135607269
 C         -5.9783739579        2.2392129524       -1.5064610510
 C         -6.6474002441        2.9553254576       -0.3266948963
 H         -5.9754497042        3.7327364520        0.0391539612
 H         -7.5451561775        3.4617444956       -0.6869196176
 C         -7.0777022403        2.0611810295        0.8401446427
 H         -7.2984643307        2.7071767546        1.6926923938
 H         -8.0019885475        1.5445958485        0.5716575924
 C         -6.0692926891        0.9969554075        1.2736626562
 H         -6.4069873636        0.5730986951        2.2215584034
 H         -6.0680094279        0.1764651985        0.5521678509
 C         -4.6223380098        1.5050011396        1.4263342091
 H         -4.5805814512        2.5878733710        1.3173323122
 H         -4.2380764732        1.2438606858        2.4146846655
 H         -6.2828572955        1.1935461721       -1.5405627696
 H         -6.3254135852        2.7069835853       -2.4290932608
 H         -4.1285675523        3.2562414106       -1.0299317602
 H         -4.0894353554        2.3561082801       -2.5472173880
 O         -2.9448521693        0.5207083732       -1.7922369371
 C         -2.1637361152       -0.5690578327       -1.4372464396
 O         -1.5347996973       -1.0795116597       -2.3820863069
 H          0.0537565895        0.0656187046        0.8799034006
 C          0.6918206537       -0.6514923678        0.3768798379
 C          0.1558374069       -1.8736094599       -0.0116501994
 C          0.9894229007       -2.7899983876       -0.6383517088
 C          2.3147246977       -2.4758754013       -0.8868463604
 C          2.8375259425       -1.2512822243       -0.5159137773
 C          2.0170809093       -0.3322832424        0.1259449745
 N          2.5356764809        0.9197071173        0.5006798251
 S          3.9695314630        0.9574950812        1.3739405224
 O          4.1347143379       -0.2350362622        2.1723133125
 O          3.9403731321        2.2127779036        2.0926911644
 C          5.2325567776        1.0357290374        0.1217427053
 C          5.1621596668        2.0526552745       -0.8101269150
 C          6.1418199054        2.1339278574       -1.7866770212
 C          7.1711746539        1.2045731290       -1.8125839574
 C          7.2296649584        0.1918186068       -0.8675612620
 C          6.2519659012        0.1039784632        0.1113321465
 H          6.2528692867       -0.6693990604        0.8627866799
 H          8.0306708945       -0.5294478237       -0.8894772524
 H          7.9320091549        1.2703761444       -2.5742117691
 H          6.0990598473        2.9197896238       -2.5235381413
 H          4.3479201528        2.7557902329       -0.7534257661
 H          1.8507751337        1.5340016534        0.9166320620
 H          3.8668781574       -1.0015849440       -0.7144484522
 H          2.9488879509       -3.1952687688       -1.3819350225
 H          0.6011984282       -3.7495037382       -0.9374711895
 C         -1.2945622097       -2.1477041205        0.3034838279
 H         -1.3934853517       -2.2214311702        1.3973643329
 C         -1.8232800232       -3.4228351532       -0.3189568968
 C         -1.6276132849       -4.7385381903        0.3714247547
 C         -2.9875764209       -4.1113541226        0.3257481257
 H         -3.7411114032       -4.5538527055       -0.3083007817
 H         -3.3819112773       -3.6743077222        1.2317660197
 H         -1.4496382718       -5.6161347231       -0.2314891806
 H         -1.0997992859       -4.7351830854        1.3132025738
 H         -1.7926391436       -3.3999959896       -1.4024347324
 O         -2.8631777642       -0.5924202826        2.1165341872
