  62
        -98.93741258
 C          1.4929882985        1.5438481200       -0.3537187405
 C          1.4360696585        0.2358801398        0.1918779791
 C          2.6961728784       -0.2756626704        0.7535431390
 C          3.8068806584        0.4796732297        0.7291377695
 C          5.1587599583        0.0905046595        1.2628154395
 C          5.9921773285       -0.7555247401        0.2901351793
 C          5.5202625086       -2.1993605900        0.1110769087
 H          6.3160675886       -2.7321116698       -0.4135189214
 H          5.4068716484       -2.6665645904        1.0897520085
 C          4.2174976687       -2.3470541098       -0.6878763415
 H          4.3338316188       -3.1416525995       -1.4283386718
 H          4.0219036287       -1.4238642596       -1.2382011512
 C          2.9898779786       -2.6884668001        0.1568120482
 H          3.1166350185       -3.6771965503        0.6029358079
 H          2.1182929687       -2.7193999799       -0.5012845819
 C          2.6965917384       -1.6810145505        1.2752402785
 H          1.6978988383       -1.8867835107        1.6676196983
 H          3.4224398683       -1.7875024308        2.0809214386
 H          7.0158953384       -0.7752026402        0.6714175594
 H          6.0099565986       -0.2548214897       -0.6807816605
 H          5.0408117082       -0.4459539208        2.2047722193
 H          5.6964775183        1.0209609295        1.4577299399
 O          3.8188722684        1.7360983499        0.2081429399
 C          2.6776028485        2.2879035801       -0.3457364900
 O          2.8422027185        3.4418769102       -0.7947910696
 O          0.4127707785       -0.4901727402        0.2248754287
 C          0.2905556886        2.2438750002       -0.9832597004
 C         -0.8513655416        2.3189632498       -0.0014042005
 C         -0.9598567017        3.4682779395        0.7807601499
 C         -1.9456610918        3.5882454892        1.7414330498
 C         -2.8559354318        2.5658935391        1.9428486993
 C         -2.7557360317        1.4127048893        1.1751010589
 C         -1.7619811316        1.2958397697        0.2121657290
 H         -1.6931766515        0.3773067899       -0.3388479713
 N         -3.6300316117        0.3388642792        1.3788536884
 S         -4.0624081815       -0.6724780103        0.1236921380
 O         -4.2187910713        0.0601248401       -1.1123246518
 O         -5.2527391415       -1.3438088005        0.6066859976
 C         -2.7486522014       -1.8642008002       -0.0084338023
 C         -2.3569789713       -2.2928967998       -1.2601574524
 C         -1.3576563712       -3.2475336097       -1.3585366826
 C         -0.7727584014       -3.7542820601       -0.2096769527
 C         -1.1803808915       -3.3143240906        1.0394987674
 C         -2.1798620416       -2.3622557606        1.1455161376
 H         -2.5127176117       -1.9905425010        2.1005553777
 H         -0.7152313016       -3.7051225109        1.9305465073
 H          0.0114082487       -4.4912310100       -0.2883977429
 H         -1.0328097011       -3.5826340693       -2.3310431127
 H         -2.8253064612       -1.8592233495       -2.1301126423
 H         -4.3818938918        0.4979142690        2.0319442784
 H         -3.6287403719        2.6546906688        2.6913237093
 H         -2.0097515019        4.4871125889        2.3360571402
 H         -0.2492870017        4.2701173296        0.6337380203
 H          0.6338073586        3.2791381503       -1.1303047599
 C          0.0126820088        1.7181451307       -2.3893012506
 C         -0.3589411311        0.3056277508       -2.7248431512
 C         -1.3456108811        1.4118574609       -2.9459925109
 H         -1.5494928410        1.7140101412       -3.9632877208
 H         -2.2066951512        1.4683977606       -2.2978003010
 H          0.1108517690       -0.1443509488       -3.5886080313
 H         -0.5154999012       -0.3858591195       -1.9131975214
 H          0.7070197488        2.1780037410       -3.0892317803
