  62
        -98.94532749
 C         -2.3598681673       -0.3902266462        0.0943708105
 C         -1.5569457722        0.2723362691       -0.8608225659
 C         -1.6060514974        1.7449195856       -0.8573404428
 C         -2.3590207435        2.3738208740        0.0616438091
 C         -2.6351750660        3.8485716894        0.2335143169
 C         -1.5079353910        4.8433212530       -0.0534911876
 C         -0.1207386865        4.4015415989        0.4341243162
 H          0.3137155411        5.1957347472        1.0445077861
 H         -0.2049649108        3.5151308053        1.0669270075
 C          0.8458160738        4.0973606659       -0.7114303159
 H          1.8679000514        4.1422838250       -0.3269449118
 H          0.7454190749        4.8663753837       -1.4809776059
 C          0.6611442944        2.7175450890       -1.3373869104
 H          0.8963265094        1.9584785505       -0.5874505759
 H          1.3857928647        2.6102106957       -2.1485160529
 C         -0.7466278356        2.4251809133       -1.8853401685
 H         -1.2159000690        3.3285177685       -2.2682838632
 H         -0.6477634057        1.7113290802       -2.7076122677
 H         -1.4644561752        5.0511145813       -1.1214211319
 H         -1.7864379739        5.7777250292        0.4376568292
 H         -3.4979710656        4.0984694324       -0.3926315775
 H         -2.9558532597        3.9557495258        1.2732828526
 O         -3.0754528583        1.6919490050        1.0031611612
 C         -3.0938144477        0.3102095172        1.0473969430
 O         -3.7922288830       -0.1692631651        1.9658420452
 O         -0.8460082718       -0.3403702754       -1.7006848707
 C         -2.4016198284       -1.9071577616        0.1295025596
 C         -1.0050211648       -2.4699307112        0.2310255958
 C         -0.5801292936       -3.5897776390       -0.4737800519
 C          0.7194143292       -4.0489836536       -0.3453124351
 C          1.6264460529       -3.3910355110        0.4651771440
 C          1.2081524736       -2.2750262973        1.1804763535
 C         -0.1048368334       -1.8445599355        1.0838873558
 H         -0.4165287761       -0.9787110447        1.6501583756
 N          2.0972635891       -1.5507773458        2.0027279381
 S          2.3958642147        0.0433410253        1.5752050941
 O          3.3734656625        0.5109329722        2.5350526269
 O          1.1585702601        0.7772291457        1.5201696847
 C          3.1631292419       -0.0648927066       -0.0332291778
 C          2.3980503648       -0.3733734475       -1.1406759926
 C          3.0321518088       -0.5153307344       -2.3661945348
 C          4.4047388487       -0.3516027831       -2.4650349283
 C          5.1577517943       -0.0433718733       -1.3418679847
 C          4.5334909568        0.0963978198       -0.1134912112
 H          5.0754765750        0.3363469476        0.7870721226
 H          6.2252523452        0.0864062068       -1.4188478935
 H          4.8889706263       -0.4634276958       -3.4223963724
 H          2.4378512015       -0.7534434716       -3.2337043956
 H          1.3283079451       -0.4878412024       -1.0555791434
 H          2.9808702582       -2.0188665675        2.1537269601
 H          2.6476164802       -3.7324027582        0.5449798443
 H          1.0348624667       -4.9200187131       -0.8989619657
 H         -1.2665559683       -4.1006970138       -1.1289493896
 H         -2.9487817093       -2.1752728526        1.0457971355
 C         -3.1704237051       -2.4278802616       -1.0687924775
 C         -3.9708449163       -3.6907604868       -0.9683514442
 C         -4.6671466363       -2.3663179295       -1.0466080580
 H         -5.1869739835       -2.1065775523       -1.9565149088
 H         -5.1310714107       -1.9744944443       -0.1527356546
 H         -4.0177457503       -4.3420548859       -1.8281273321
 H         -3.9745318694       -4.2073389348       -0.0204176339
 H         -2.6750164825       -2.2061557061       -2.0072105913
