  62
        -98.94510070
 C         -2.5596097831       -0.0449511437        0.3764457444
 C         -2.2486887594        0.5787133943       -0.8559435826
 C         -1.9762645677        2.0212997129       -0.7930338223
 C         -2.0512085182        2.6562974926        0.3903061839
 C         -1.8250095234        4.1266579534        0.5937098215
 C         -0.3711899548        4.4451674967        0.9636723810
 C          0.6645090406        3.8060049401        0.0387265346
 H          0.6643820406        2.7233381065        0.1838773624
 H          1.6458004040        4.1657011386        0.3579756523
 C          0.4708064349        4.1129868176       -1.4525585688
 H          1.4467243080        4.3379084848       -1.8876607723
 H         -0.1520263768        5.0005430161       -1.5740054797
 C         -0.1207898098        2.9563138591       -2.2614827709
 H          0.4070629174        2.0332314863       -2.0068452426
 H          0.0506594919        3.1575269294       -3.3225617065
 C         -1.6249425184        2.7145487921       -2.0785504939
 H         -1.9574384153        2.0450290339       -2.8773262191
 H         -2.1664634448        3.6586135753       -2.1728624247
 H         -0.1849948616        4.0887751805        1.9797558654
 H         -0.2481213403        5.5304310720        0.9558642214
 H         -2.1009102286        4.6543929123       -0.3175040971
 H         -2.4753057813        4.4590683772        1.4054237138
 O         -2.3456887325        2.0211697519        1.5554953030
 C         -2.5784379666        0.6559467700        1.5800245904
 O         -2.8021641764        0.1919096617        2.7192357098
 H         -0.2435840686       -0.9359934951        0.5905096568
 C         -0.3958662341       -1.8436842606        0.0246387412
 C         -1.6875656452       -2.3135179316       -0.1728115518
 C         -1.8604739745       -3.4976436096       -0.8782743943
 C         -0.7643476417       -4.1779959380       -1.3810691725
 C          0.5168521046       -3.6900888601       -1.2071701623
 C          0.6999294405       -2.5005879203       -0.5079473859
 N          1.9837398561       -1.9468436896       -0.3767443182
 S          2.2745105834       -0.6169110186        0.6030466126
 O          2.0168696721       -0.9362625218        1.9924270060
 O          1.5790361714        0.5223411350        0.0635995057
 C          4.0280236706       -0.4343134192        0.3415302569
 C          4.9115379527       -1.0550519422        1.2042563350
 C          6.2727248221       -0.9322470515        0.9734892290
 C          6.7249832965       -0.1959425253       -0.1112097784
 C          5.8264666374        0.4238404472       -0.9669217617
 C          4.4642849811        0.3047016519       -0.7414351838
 H          3.7277724142        0.7742164921       -1.3728589986
 H          6.1810359206        0.9988700800       -1.8070222941
 H          7.7845760776       -0.1016118115       -0.2888615904
 H          6.9735700759       -1.4095390880        1.6392607718
 H          4.5143582831       -1.6063754531        2.0414371170
 H          2.7331128184       -2.6228115163       -0.3700758160
 H          1.3682691777       -4.2124898075       -1.6147504558
 H         -0.9121509669       -5.0996027583       -1.9233824234
 H         -2.8532825578       -3.8868611657       -1.0352977882
 C         -2.8391555661       -1.5353612151        0.4186297416
 H         -2.9181718257       -1.8006394458        1.4844674651
 C         -4.1628141679       -1.8342888463       -0.2584697264
 C         -5.0442416395       -2.9378324956        0.2422013915
 C         -5.4329028904       -1.5083563070        0.4664236009
 H         -6.2586789318       -1.1001615386       -0.0965326607
 H         -5.3396357755       -1.1007065131        1.4629335001
 H         -4.7011559823       -3.5056562542        1.0940182583
 H         -5.6092119788       -3.5125272065       -0.4762386356
 H         -4.1315243857       -1.6440370689       -1.3252300803
 O         -2.2182112886       -0.0348110707       -1.9552002758
