  62
        -98.93364973
 C         -1.6490076021       -0.1539613034        0.8535251178
 C         -2.8341584106       -0.9151986783        0.7108158288
 C         -4.0705291963       -0.1513634720        0.4664998324
 C         -4.0158464740        1.1889116886        0.3757756758
 C         -5.1700082010        2.0911479538        0.0430298376
 C         -5.4607725150        2.0396705933       -1.4705926292
 C         -6.8177972884        1.4354058716       -1.8322048744
 H         -7.6003499771        2.1669928796       -1.6200812507
 H         -6.8187245767        1.2554236522       -2.9094001203
 C         -7.1839817870        0.1355191867       -1.1093910911
 H         -7.5478771784        0.3630436582       -0.1062803554
 H         -8.0235198100       -0.3043486401       -1.6520589122
 C         -6.0664355384       -0.9098076001       -1.0004119016
 H         -5.3314635084       -0.7720882903       -1.7937931174
 H         -6.5100787841       -1.8968637131       -1.1465789190
 C         -5.3474241949       -0.9392810654        0.3614156374
 H         -6.0383629949       -0.6193335849        1.1462528374
 H         -5.0580337769       -1.9714778500        0.5794407029
 H         -4.6658382107        1.4666877694       -1.9526123213
 H         -5.4152214929        3.0481805984       -1.8843634132
 H         -4.8888138453        3.1011922854        0.3415233761
 H         -6.0472955362        1.7909728299        0.6117701827
 O         -2.8575460142        1.8861344439        0.5034997569
 C         -1.6591791296        1.2411425540        0.7482059336
 O         -0.6813513054        2.0076728268        0.8567468070
 O         -2.8872325764       -2.1726369033        0.7790400128
 C         -0.2840578864       -0.7615321736        1.1310362278
 C          0.3866997066       -1.2706507644       -0.1224980919
 C         -0.2127077907       -2.2218591632       -0.9407205880
 C          0.4475618273       -2.6935067080       -2.0603936829
 C          1.7219891089       -2.2504812898       -2.3688459272
 C          2.3314806479       -1.3041390659       -1.5541897813
 C          1.6529372404       -0.8088573531       -0.4498979519
 H          2.1230201334       -0.0580205764        0.1666607294
 N          3.6212227676       -0.8313146713       -1.8342604045
 S          4.6934307161       -0.5469158192       -0.5799777072
 O          6.0004557378       -0.6376921515       -1.1949192340
 O          4.4523793634       -1.4302420639        0.5364114187
 C          4.3946992329        1.1433314308       -0.1109703087
 C          4.1555325561        1.4549539103        1.2124118865
 C          3.9442419160        2.7789625864        1.5625923511
 C          3.9781062210        3.7633401300        0.5874441728
 C          4.2239798351        3.4346272101       -0.7371315530
 C          4.4358377354        2.1127495026       -1.0931604359
 H          4.6323759427        1.8189214846       -2.1107617912
 H          4.2486113260        4.2044088151       -1.4915944420
 H          3.8100090289        4.7925303358        0.8627687388
 H          3.7499625943        3.0360039877        2.5916484485
 H          4.1326455578        0.6575702545        1.9390949614
 H          4.0729185064       -1.2682388408       -2.6243874851
 H          2.2424420208       -2.6338710548       -3.2335669740
 H         -0.0289348220       -3.4275698719       -2.6927676846
 H         -1.1960416059       -2.5876162576       -0.6887766641
 H          0.3310718759        0.0629621781        1.5167208088
 C         -0.3064210077       -1.8643044419        2.1746078355
 C          0.9915055278       -2.3067177800        2.7785728842
 C          0.0051914452       -1.5344422034        3.6015344074
 H         -0.5339494071       -2.0529133765        4.3802498056
 H          0.2330423887       -0.5053007678        3.8389339677
 H          1.1261697248       -3.3565056174        2.9908812765
 H          1.8953132548       -1.8132295785        2.4510218362
 H         -1.0565598103       -2.6202183753        1.9844653400
