  62
        -98.94912395
 C         -2.0507974461       -0.5386436071        0.5631360206
 C         -1.4227090765        0.4786096934        1.3209933396
 C         -1.7768643490        1.8603959388        0.9774684803
 C         -2.6497231402        2.0843604727       -0.0208825386
 C         -3.1031634611        3.4398413661       -0.4795233189
 C         -2.2376796127        3.9728655148       -1.6283813678
 C         -0.7339606735        3.8921341017       -1.3643600112
 H         -0.4212178362        2.8450694522       -1.3424052291
 H         -0.2296207432        4.3514978693       -2.2181377396
 C         -0.2747146802        4.5805211495       -0.0714439777
 H          0.6309088213        5.1516671352       -0.2869895778
 H         -1.0338673090        5.2878242965        0.2661572156
 C          0.0695297102        3.6132664338        1.0628518759
 H          0.6389780124        4.1602457087        1.8194841072
 H          0.7146015761        2.8243996672        0.6665983776
 C         -1.1271648601        2.9605973548        1.7683403059
 H         -1.8572967300        3.7264972915        2.0392461462
 H         -0.7617164308        2.4945514356        2.6882827565
 H         -2.5195674817        5.0110115756       -1.8168720605
 H         -2.4570279209        3.3921622987       -2.5274655610
 H         -4.1347592850        3.3537942543       -0.8263752499
 H         -3.0702423011        4.1289465418        0.3623951072
 O         -3.2117851352        1.0857488704       -0.7475676822
 C         -2.8989107819       -0.2443099728       -0.5040518962
 O         -3.4477688206       -1.0447691034       -1.2856703952
 O         -0.6074122224        0.2406443979        2.2537756260
 C         -1.6853302752       -1.9887695196        0.8463619845
 C         -0.8274463249       -2.4621069686       -0.3011643786
 C         -1.1923111514       -3.4553286660       -1.1985230468
 C         -0.3804303269       -3.7393976256       -2.2843445678
 C          0.7858341118       -3.0312031648       -2.5072693608
 C          1.1663494677       -2.0425774599       -1.6040680788
 C          0.3771084382       -1.7961243541       -0.4950686689
 H          0.6697205817       -1.0327283722        0.2071569875
 N          2.3411484880       -1.3041984147       -1.7926134783
 S          2.4975445821        0.2736895038       -1.2455797552
 O          1.2238439226        0.9410511076       -1.1291561797
 O          3.4463195996        0.8699700377       -2.1642967410
 C          3.2993322774        0.0771481037        0.3329855951
 C          4.6184781025       -0.3365801744        0.3074914382
 C          5.2914198173       -0.5213471500        1.5030078938
 C          4.6373594399       -0.2894442878        2.7042893812
 C          3.3164716587        0.1281563543        2.7138951829
 C          2.6365215603        0.3149564506        1.5191474070
 H          1.6033279852        0.6283415680        1.5152688968
 H          2.7987515901        0.3077913248        3.6426332983
 H          5.1586888039       -0.4338569174        3.6375128596
 H          6.3198318351       -0.8447756544        1.4962698942
 H          5.0909205908       -0.4922482378       -0.6481056730
 H          2.7992419662       -1.4448640416       -2.6803158165
 H          1.3962387983       -3.2337901296       -3.3742734698
 H         -0.6738263317       -4.5097773568       -2.9816127732
 H         -2.1177626568       -3.9901202430       -1.0630594374
 H         -1.0618753226       -1.9611427804        1.7514785042
 C         -2.9020018498       -2.8451089460        1.1139497007
 C         -2.7451625655       -4.1431727314        1.8466764151
 C         -3.4055647254       -2.9782954648        2.5188831108
 H         -4.4723677434       -3.0112813214        2.6814993253
 H         -2.8623011263       -2.4590701214        3.2948058036
 H         -3.3590476791       -4.9799980773        1.5505063928
 H         -1.7514767725       -4.4167827358        2.1674190382
 H         -3.6412848900       -2.7889214311        0.3240521173
