  62
        -98.93726699
 C          1.8865999301        0.6814104391        0.0727873707
 C          2.4894291796       -0.5497853614        0.4338825798
 C          3.8577355997       -0.7982326614       -0.0513559601
 C          4.4694625301        0.1382821490       -0.7997754391
 C          5.8303135703        0.1558776692       -1.4642162188
 C          6.8944683999       -0.8728945915       -1.0917332394
 C          7.4452439896       -0.7371965129        0.3274648608
 H          8.1154400693       -1.5786838132        0.5160957803
 H          8.0380209299        0.1792681169        0.3836228618
 C          6.3993025993       -0.6767523635        1.4378492106
 H          5.7822005496        0.2153505368        1.3131891013
 H          6.9275765791       -0.5719675245        2.3894355109
 C          5.4883063689       -1.8980608233        1.5456533894
 H          4.9058458087       -1.7945537939        2.4652928393
 H          6.0935885486       -2.8023716736        1.6345386188
 C          4.4924497492       -2.0862575520        0.3880296190
 H          4.9568225992       -2.5925332314       -0.4550682713
 H          3.6777330189       -2.7240483621        0.7436511682
 H          7.7275698501       -0.7233098512       -1.7839115391
 H          6.5216696296       -1.8786786412       -1.2617471404
 H          6.2300775006        1.1609787089       -1.2963411478
 H          5.6352532005        0.0782490401       -2.5395125489
 O          3.8479324706        1.3062457195       -1.1278399883
 C          2.5622000006        1.6146188795       -0.7120747183
 O          2.1707097410        2.7290586000       -1.1074782075
 O          1.9052849092       -1.4155929618        1.1407162889
 C          0.4756609401        0.9329917691        0.5801618006
 C         -0.5379688098        0.6398203903       -0.5003174399
 C         -0.6527112393        1.4430063113       -1.6312211892
 C         -1.5724133591        1.1366240625       -2.6166835497
 C         -2.4067026195        0.0396409426       -2.4880375309
 C         -2.3008189500       -0.7690287084       -1.3636419315
 C         -1.3667768702       -0.4671329795       -0.3813182510
 H         -1.2839157906       -1.1171633503        0.4771229684
 N         -3.1360802904       -1.8913865483       -1.2034827427
 S         -4.0379362308       -2.0113636992        0.2026841170
 O         -3.1768414411       -2.2804998604        1.3246686570
 O         -5.0463285110       -3.0058481786       -0.0885816841
 C         -4.7905198103       -0.4030654791        0.3660289282
 C         -4.1323467002        0.5798075101        1.0769360692
 C         -4.6768645198        1.8532822002        1.1213083501
 C         -5.8647202695        2.1196754512        0.4581352401
 C         -6.5175039097        1.1198696720       -0.2472845509
 C         -5.9739225401       -0.1532566581       -0.3011840719
 H         -6.4504977202       -0.9606041775       -0.8334149727
 H         -7.4435427095        1.3297723927       -0.7577937310
 H         -6.2842279392        3.1126654713        0.4934694108
 H         -4.1673863897        2.6296171396        1.6692229709
 H         -3.2133843804        0.3318280494        1.5818639792
 H         -3.7264201103       -2.0739738874       -2.0030176930
 H         -3.1270958594       -0.1962168865       -3.2567822312
 H         -1.6452744287        1.7630249032       -3.4927015392
 H          0.0044688110        2.2912166112       -1.7420685984
 H          0.3268296496        0.1962946884        1.3817457899
 C          0.2888089003        2.3195212886        1.1630390417
 C         -0.7756073498        2.5424636781        2.1932354217
 C          0.6692475101        2.5668054773        2.5907113520
 H          1.1222211403        3.5127525769        2.8466352830
 H          1.0567518697        1.7313656667        3.1561824214
 H         -1.3183169395        3.4748475883        2.1780163123
 H         -1.3645562602        1.6906030780        2.4987466908
 H          0.4830283808        3.1160407592        0.4574654825
