  62
        -98.94822049
 C          1.1959089798        1.2153892599       -0.0566794498
 C          1.8935883897        0.6219816999        1.0224482903
 C          2.5085055201       -0.6815437299        0.7478170203
 C          2.3771581706       -1.2389875598       -0.4695162398
 C          2.9276691410       -2.5727943096       -0.8962708898
 C          4.3978680311       -2.5300374891       -1.3355074494
 C          5.4119256108       -2.3522658390       -0.2048020191
 H          5.2245924608       -3.0959984691        0.5704493007
 H          6.3984686710       -2.5600333687       -0.6238822289
 C          5.4276132203       -0.9495583991        0.4186702210
 H          6.4601989901       -0.6104117188        0.5272005014
 H          4.9282045503       -0.2464744591       -0.2517478490
 C          4.7762169999       -0.8617244294        1.7989976609
 H          4.8083146795        0.1798566506        2.1289692410
 H          5.3470355898       -1.4585817593        2.5138868610
 C          3.3136903000       -1.3239794998        1.8360127104
 H          3.2586702303       -2.4101546298        1.7596716703
 H          2.8785922097       -1.0221020100        2.7925566104
 H          4.5213571311       -1.7258588290       -2.0643191993
 H          4.6133250315       -3.4740024490       -1.8411739295
 H          2.3250951013       -2.9032459396       -1.7449242100
 H          2.8072362310       -3.2934615297       -0.0866699499
 O          1.6873905707       -0.6422109298       -1.4772485499
 C          1.0745600003        0.5929567500       -1.2982318399
 O          0.4674951505        1.0101030300       -2.3010625400
 O          1.9950113693        1.1554721798        2.1605098304
 C          0.5153488594        2.5552144197        0.1559790902
 C         -0.9777281605        2.3971636993        0.0013424098
 C         -1.7511789905        3.1865406592       -0.8391059403
 C         -3.1168950404        2.9802602989       -0.9307176607
 C         -3.7354830103        1.9888340986       -0.1926066510
 C         -2.9724876304        1.1999440887        0.6621762291
 C         -1.6066141304        1.4123415991        0.7553512695
 H         -1.0230449705        0.8007925091        1.4286463396
 N         -3.5819506203        0.2071155385        1.4502419388
 S         -2.9217544599       -1.3237518714        1.5544721288
 O         -3.9641102999       -2.1184596817        2.1670894384
 O         -1.6602751901       -1.2829482711        2.2482350891
 C         -2.6922009694       -1.8353876611       -0.1360483712
 C         -1.4593440392       -1.6672477307       -0.7303186308
 C         -1.3065919088       -2.0001399005       -2.0665565208
 C         -2.3864022885       -2.4961188107       -2.7801372412
 C         -3.6184314886       -2.6683279511       -2.1665301815
 C         -3.7777980990       -2.3296669513       -0.8330674215
 H         -4.7150098592       -2.4549541016       -0.3153913718
 H         -4.4532784084       -3.0599534813       -2.7250460518
 H         -2.2632138282       -2.7502929606       -3.8210402412
 H         -0.3496749187       -1.8488934202       -2.5407367706
 H         -0.6413442895       -1.2805010006       -0.1421886906
 H         -4.5832758603        0.1460463282        1.3312896186
 H         -4.8001535003        1.8281940884       -0.2673041113
 H         -3.7064116004        3.5977028688       -1.5910617008
 H         -1.2856736505        3.9609140294       -1.4257112601
 H          0.7186600491        2.8196877896        1.2047539203
 C          1.1196222194        3.6151701099       -0.7401028595
 C          1.0867398189        5.0556862999       -0.3282559094
 C          2.3794616591        4.2984514802       -0.3031101991
 H          3.1276359992        4.5261825505       -1.0475016289
 H          2.7906810689        4.0161264102        0.6553671309
 H          0.9499798089        5.8080130599       -1.0901878393
 H          0.6218049986        5.2941380297        0.6163896405
 H          1.0208684597        3.3786584100       -1.7932649596
