  62
        -98.93679241
 C         -2.4184324673       -1.2404005594        0.1054907650
 C         -2.3039562122        0.0442984398       -0.4805525742
 C         -3.5709675326        0.6831980561       -0.8747014081
 C         -4.7338290601        0.0430186635       -0.6598776159
 C         -6.0930351242        0.6012051781       -0.9651589992
 C         -6.6701729965        1.3494109120        0.2447532376
 C         -5.7015294825        2.3532333599        0.8700314763
 H         -6.2264322431        2.8416399152        1.6938211870
 H         -4.8566757138        1.8124554088        1.3027835167
 C         -5.1744644907        3.4174157197       -0.1025831653
 H         -5.8183501232        3.4679609267       -0.9813230944
 H         -5.2175872863        4.3921187535        0.3878024042
 C         -3.7259419584        3.2083144038       -0.5484862315
 H         -3.0877631506        3.0632529227        0.3270988276
 H         -3.3891241764        4.1194211076       -1.0503161043
 C         -3.4866605425        2.0407095649       -1.5140972160
 H         -4.1752202125        2.1131165306       -2.3586604962
 H         -2.4646278579        2.1296988232       -1.8949890633
 H         -7.5787061148        1.8656095271       -0.0703574878
 H         -6.9422829470        0.6160955421        1.0073024563
 H         -6.0210046923        1.2705914840       -1.8201198138
 H         -6.7557973845       -0.2279179090       -1.2184969987
 O         -4.8050008805       -1.1830500005       -0.0813368381
 C         -3.6590025455       -1.8437436090        0.3293078768
 O         -3.8725102139       -2.9424711554        0.8787545908
 H          1.4311505105       -1.3825663942       -0.0407081546
 C          1.0672520613       -0.9006832264        0.8502299542
 C         -0.2339700935       -1.1039480488        1.2814672706
 C         -0.6702594584       -0.4416687021        2.4262845127
 C          0.1684462715        0.4192094162        3.1060527167
 C          1.4614715423        0.6327269038        2.6626992828
 C          1.9124889042       -0.0346942097        1.5297848642
 N          3.2419523383        0.1320293142        1.1027959393
 S          3.6746445116        0.0092896081       -0.5215285450
 O          2.9641919189        0.9790495006       -1.3240732545
 O          3.5740324967       -1.3681686945       -0.9331971874
 C          5.3942920568        0.4691260010       -0.3952716320
 C          5.7721910463        1.7696481418       -0.6703839103
 C          7.1066650992        2.1222715097       -0.5435264560
 C          8.0358231834        1.1739604670       -0.1432483174
 C          7.6421530090       -0.1280294009        0.1280604623
 C          6.3096610511       -0.4869342740        0.0019366222
 H          5.9588926882       -1.4875913457        0.1929266919
 H          8.3678926543       -0.8633251611        0.4361178647
 H          9.0736422999        1.4507207187       -0.0450935158
 H          7.4158428088        3.1326937312       -0.7576034509
 H          5.0165499821        2.4702944582       -0.9880719762
 H          3.6805586417        0.9418924736        1.5201408950
 H          2.1154562744        1.3118272534        3.1886146454
 H         -0.1878291275        0.9348103429        3.9855084792
 H         -1.6855738339       -0.6009858342        2.7655109877
 C         -1.1988911119       -2.0193062064        0.5679144438
 H         -1.5850082654       -2.7414812873        1.3072489232
 C         -0.5380758518       -2.8373029257       -0.5317553667
 C         -1.3213541732       -3.3586632188       -1.6981908216
 C         -0.2980941218       -2.2841104879       -1.9030125641
 H          0.6286851543       -2.5341245532       -2.3998907504
 H         -0.6339192581       -1.2781578328       -2.1012749306
 H         -2.3657504300       -3.0895471717       -1.7624135389
 H         -1.1035489784       -4.3534131173       -2.0566555667
 H          0.2288725212       -3.4983093384       -0.1383475433
 O         -1.2120370582        0.6414576263       -0.6687454975
