  62
        -98.93820647
 C          1.7745730580        0.2250125673       -0.8744851563
 C          2.9325393471       -0.5812261861       -1.0101073718
 C          4.2124124396        0.0814402763       -0.7019349160
 C          4.2223635934        1.3707129782       -0.3215624209
 C          5.4469900340        2.1413796025        0.0769566561
 C          5.6993546893        2.0422376094        1.5879088617
 C          5.6509613214        0.6135442618        2.1295781122
 H          5.8728212396        0.6629254818        3.1978626025
 H          4.6330398959        0.2293621608        2.0306942122
 C          6.6269448770       -0.3565269022        1.4492003890
 H          7.4006634496        0.2041255181        0.9233847262
 H          7.1241162348       -0.9506064297        2.2189980975
 C          5.9699546151       -1.3421349024        0.4811225970
 H          5.1337521428       -1.8407982517        0.9777452016
 H          6.7047816901       -2.1111663963        0.2280479664
 C          5.4610519192       -0.7445344155       -0.8367429141
 H          5.1999854680       -1.5758392167       -1.4983478556
 H          6.2569032415       -0.1656804159       -1.3097781808
 H          4.9377244103        2.6300766603        2.1053848243
 H          6.6742762568        2.4827300682        1.8046643203
 H          6.3054828373        1.7581429775       -0.4712111486
 H          5.2953538038        3.1888003945       -0.1891822169
 O          3.0922826772        2.1148357317       -0.2103826785
 C          1.8514944341        1.5622870893       -0.4742157788
 O          0.8990207657        2.3549934665       -0.3289500244
 O          2.9247110143       -1.7874837889       -1.3634225338
 C          0.3679602505       -0.2810811804       -1.1456167730
 C         -0.2453443193       -0.9210418339        0.0730381299
 C          0.4623406639       -1.8173920742        0.8668618730
 C         -0.1396988836       -2.4050935849        1.9645934700
 C         -1.4609931958       -2.1341454645        2.2745029109
 C         -2.1780630367       -1.2430999808        1.4854599903
 C         -1.5593220490       -0.6280803248        0.4063394964
 H         -2.1130665361        0.0842963330       -0.1852962598
 N         -3.5199245773       -0.9463547663        1.7606972453
 S         -4.6032098751       -0.8065907828        0.4887237591
 O         -5.8914834370       -1.1103602386        1.0731857239
 O         -4.2021743283       -1.6200472772       -0.6342562999
 C         -4.5579438029        0.9186042444        0.0553556008
 C         -4.8274897212        1.8465507904        1.0417011418
 C         -4.8076195235        3.1930377779        0.7167309179
 C         -4.5215091850        3.5866371235       -0.5819343013
 C         -4.2570814677        2.6425287726       -1.5618319004
 C         -4.2757531535        1.2939082704       -1.2429242692
 H         -4.0710979421        0.5279723872       -1.9749680775
 H         -4.0330220216        2.9499948858       -2.5707831342
 H         -4.5034345950        4.6354466986       -0.8330064853
 H         -5.0124606038        3.9314626887        1.4750914727
 H         -5.0495300915        1.5015173521        2.0377229592
 H         -3.9165983383       -1.4519381058        2.5393499435
 H         -1.9343754135       -2.6086156978        3.1207909662
 H          0.4209585549       -3.0959147338        2.5764461059
 H          1.4820983365       -2.0586155760        0.6083602097
 H         -0.2229667893        0.6217835009       -1.3693256901
 C          0.2788799586       -1.1836549662       -2.3695784180
 C          0.0928548798       -2.6658532737       -2.2965875663
 C         -1.0319420514       -1.7966196430       -2.7679805474
 H         -1.2929302814       -1.8140890141       -3.8157844891
 H         -1.8784385073       -1.6724945497       -2.1071698230
 H          0.6237147117       -3.2732593014       -3.0136114177
 H          0.0095522331       -3.1215859335       -1.3225341736
 H          0.9069253546       -0.8216978052       -3.1779321983
