  62
        -98.93899305
 C         -2.1253516958       -0.7224534107        0.5622900177
 C         -2.0151800266        0.0138177069       -0.6395353526
 C         -1.9242910010        1.4783816981       -0.5095926870
 C         -1.9202179309        2.0336288445        0.7161528970
 C         -1.7561333235        3.4726600020        1.1612420747
 C         -1.8676951778        4.6182112394        0.1589249471
 C         -3.2682698539        4.8296346546       -0.4149564724
 H         -3.9158546958        5.2046819920        0.3813520433
 H         -3.2081605036        5.5996544247       -1.1869163055
 C         -3.9318558305        3.5868601867       -1.0022636767
 H         -4.9216738133        3.8760568644       -1.3654213050
 H         -4.0804913584        2.8442508926       -0.2158314853
 C         -3.1833290937        2.9345572511       -2.1628201315
 H         -2.9882440954        3.6772166541       -2.9387645095
 H         -3.8380726582        2.1694600868       -2.5880966830
 C         -1.8549060739        2.2507201537       -1.7950726057
 H         -1.6199606648        1.5186589056       -2.5734310722
 H         -1.0316446820        2.9609481610       -1.7655111991
 H         -1.5890084522        5.5290155288        0.6960143108
 H         -1.1416949740        4.4874788754       -0.6381328580
 H         -2.4866028010        3.6236134159        1.9629288636
 H         -0.7670732241        3.5171793875        1.6321304796
 O         -2.0280503519        1.2788460871        1.8511803991
 C         -2.1153898096       -0.1003170716        1.8069535120
 O         -2.1867560021       -0.6493522237        2.9272966123
 O         -1.9867771366       -0.5270550637       -1.7766924360
 C         -2.1255153795       -2.2401714914        0.5212973020
 C         -0.8532983894       -2.7023213050       -0.1498397529
 C         -0.8043339199       -3.7126398105       -1.1010631317
 C          0.3954721650       -4.0404125206       -1.7097309745
 C          1.5594809547       -3.3623826349       -1.3989245174
 C          1.5237631965       -2.3642222396       -0.4309765498
 C          0.3296271449       -2.0637036636        0.2004330245
 H          0.3153078208       -1.2871830282        0.9528103271
 N          2.6854817587       -1.6593042066       -0.0684674626
 S          2.5180104543       -0.0364938336        0.3731134126
 O          2.1726943200        0.0291183317        1.7727544528
 O          1.6369773440        0.6528798330       -0.5413604965
 C          4.1975135441        0.5229010900        0.1505884868
 C          5.1223788358        0.2605985828        1.1436919421
 C          6.4355429349        0.6633730004        0.9594662905
 C          6.8003345136        1.3173356998       -0.2081772579
 C          5.8608206920        1.5755676805       -1.1949571139
 C          4.5458870747        1.1741604120       -1.0175523905
 H          3.7784848649        1.3591219300       -1.7522362679
 H          6.1459648587        2.0872756618       -2.0999768413
 H          7.8227653076        1.6303017661       -0.3487482677
 H          7.1677061044        0.4667899374        1.7258648786
 H          4.7885661138       -0.2415677296        2.0367437264
 H          3.4423153789       -1.7874599764       -0.7267367083
 H          2.4868029142       -3.5993148139       -1.8978482995
 H          0.4193485854       -4.8223745100       -2.4535488943
 H         -1.7072883534       -4.2319930568       -1.3776394057
 H         -2.1049159952       -2.5738274953        1.5697956458
 C         -3.3838516465       -2.7641868861       -0.1378427800
 C         -3.9443395959       -4.0975019579        0.2541818831
 C         -4.6442397048       -2.8391999057        0.6686332418
 H         -5.5779894972       -2.5837278199        0.1908235077
 H         -4.5861996804       -2.5356803876        1.7041239638
 H         -4.4030387348       -4.7083211906       -0.5086382740
 H         -3.4192170765       -4.6567987893        1.0136964178
 H         -3.4683224932       -2.4533572041       -1.1726971931
