  62
        -98.93930471
 C         -2.6787519472       -1.2877816894       -0.2435177807
 C         -2.5688413828       -0.1146009037       -1.0291491590
 C         -3.7732388539        0.7235730482       -1.0906094042
 C         -4.8901573536        0.3434614090       -0.4448236927
 C         -6.1966550978        1.0891318626       -0.4204726197
 C         -6.2560236447        2.2004362555        0.6367643500
 C         -5.4212835593        3.4429722617        0.3233737421
 H         -5.6645720234        3.7998503720       -0.6778574028
 H         -5.7255742742        4.2188712921        1.0287048397
 C         -3.9047415610        3.2358968508        0.4435996106
 H         -3.4656722930        4.0688436504        0.9974928343
 H         -3.7033018963        2.3300657710        1.0206772942
 C         -3.1686769181        3.1435665041       -0.8931680982
 H         -3.2456332162        4.0971325461       -1.4203243945
 H         -2.1115998723        2.9546624881       -0.6881190754
 C         -3.6781574326        2.0305237638       -1.8180941242
 H         -4.6444419255        2.3040968985       -2.2408716126
 H         -2.9599356782        1.9062095822       -2.6320409315
 H         -5.9433673115        1.7849883279        1.5976657109
 H         -7.3008002554        2.5053656550        0.7309535832
 H         -6.3981158756        1.5105259110       -1.4055486318
 H         -6.9708109823        0.3538757952       -0.1908587525
 O         -4.9635697751       -0.8087190866        0.2740820936
 C         -3.8577757840       -1.6295435308        0.4203803982
 O         -4.0499183070       -2.6237744237        1.1499888081
 H          0.9573823169       -1.1902444548       -0.8845301018
 C          0.7420694252       -0.9619545411        0.1472810486
 C         -0.4341658328       -1.4131426069        0.7220798880
 C         -0.6908783165       -1.0961141377        2.0538928499
 C          0.2040150114       -0.3390191506        2.7844802936
 C          1.3692752200        0.1283754202        2.2010687214
 C          1.6348311953       -0.1816986988        0.8746985413
 N          2.7964013378        0.3167476494        0.2586510020
 S          4.2432919440        0.2828807328        1.1243351511
 O          4.4652820943       -1.0361711480        1.6752564394
 O          4.2377533694        1.3665950738        2.0749306251
 C          5.4142768936        0.6258647375       -0.1733169645
 C          6.1244130548       -0.4124901010       -0.7448641912
 C          7.0140821702       -0.1308200457       -1.7698716691
 C          7.1743277995        1.1760022758       -2.2051247755
 C          6.4533889720        2.2075718379       -1.6217306403
 C          5.5636111604        1.9333562675       -0.5955727959
 H          4.9883691731        2.7026749991       -0.1074426506
 H          6.5820242996        3.2222941547       -1.9623631609
 H          7.8673651839        1.3924717144       -3.0027100365
 H          7.5778126956       -0.9297177428       -2.2241028362
 H          5.9731462283       -1.4118312400       -0.3693186931
 H          2.9195798876       -0.0528192892       -0.6740111235
 H          2.0733660354        0.7248848747        2.7581755909
 H         -0.0069118474       -0.1037030619        3.8172431109
 H         -1.6090187432       -1.4490187152        2.5047799329
 C         -1.4762875669       -2.1954790098       -0.0408195862
 H         -1.8210851711       -3.0175069542        0.6014312910
 C         -0.9893994275       -2.7721848235       -1.3524803672
 C         -0.0992482259       -3.9776231377       -1.3444286098
 C         -1.5199977363       -4.0974713150       -1.8058357321
 H         -1.7104704655       -4.2429512190       -2.8585530295
 H         -2.2283450848       -4.5977891879       -1.1615948513
 H          0.6862615074       -4.0459035311       -2.0816517844
 H          0.1603569270       -4.3986044323       -0.3846567636
 H         -0.8238944776       -2.0186118304       -2.1126264220
 O         -1.5284783507        0.2213337077       -1.6516272137
