  62
        -98.94024212
 C         -2.6111227443       -0.8506112252       -0.1373160305
 C         -2.1633257973        0.1431503371       -1.0439810871
 C         -2.7229636212        1.4888052917       -0.8412586079
 C         -3.6423851164        1.7042472884        0.1155727991
 C         -4.3347890922        3.0075857851        0.4102028818
 C         -3.5436778084        3.9432895964        1.3337499129
 C         -2.3192429019        4.5996604092        0.6953379088
 H         -2.6106851465        5.0793591127       -0.2395421826
 H         -1.9843107575        5.3853358444        1.3753691389
 C         -1.1501624903        3.6383286424        0.4385243640
 H         -0.2168126210        4.0948175596        0.7750685397
 H         -1.2850950458        2.7277304379        1.0273564024
 C         -0.9516988924        3.2479177742       -1.0262326414
 H         -0.6721717257        4.1307447718       -1.6065320118
 H         -0.1223282037        2.5366126987       -1.0748211532
 C         -2.1802866043        2.6036847399       -1.6829062575
 H         -2.9490930714        3.3557128265       -1.8630690496
 H         -1.8725763803        2.1784390546       -2.6415783408
 H         -3.2354383646        3.3816045878        2.2184992683
 H         -4.2251858195        4.7323460317        1.6598529211
 H         -4.5587971577        3.5213160166       -0.5250656999
 H         -5.2758250447        2.7528086566        0.9024861529
 O         -4.0830696375        0.7132134478        0.9356936711
 C         -3.5561238371       -0.5632932289        0.8524714008
 O         -4.0196268052       -1.3580997740        1.6963734741
 H          0.1582504479       -0.7642465183       -0.2294292389
 C          0.2277982484       -1.5667402725        0.4883020458
 C         -0.8407386390       -2.4330970512        0.6720877014
 C         -0.7179760160       -3.4612689994        1.5997060563
 C          0.4511195623       -3.6231231041        2.3207606425
 C          1.5177825187       -2.7655457470        2.1277026395
 C          1.4015257630       -1.7245460280        1.2113900509
 N          2.4559014243       -0.8150201864        1.0452034315
 S          2.6613987644       -0.0012496715       -0.4184507963
 O          1.7713281815        1.1292553752       -0.4504730212
 O          2.5929046868       -0.9331939039       -1.5208695372
 C          4.3399549981        0.5658223586       -0.2086100083
 C          4.5661410952        1.7514272684        0.4642120335
 C          5.8717568018        2.1748023852        0.6564664467
 C          6.9241042115        1.4092084412        0.1767754885
 C          6.6820200570        0.2223798728       -0.4986127800
 C          5.3785451111       -0.2063507063       -0.6938712801
 H          5.1415799271       -1.1157415046       -1.2224648797
 H          7.5017191415       -0.3687741470       -0.8739074192
 H          7.9391477603        1.7410643449        0.3275981902
 H          6.0632372982        3.0987532686        1.1778557382
 H          3.7157362736        2.3154428038        0.8107882954
 H          3.3332250517       -1.1499507260        1.4183492976
 H          2.4316927824       -2.8898805060        2.6882419092
 H          0.5339561082       -4.4260512135        3.0373022784
 H         -1.5517757434       -4.1285802884        1.7600260619
 C         -2.1091412462       -2.2846551439       -0.1363956892
 H         -2.8918867846       -2.8721459150        0.3645301547
 C         -1.8946861283       -2.8636867174       -1.5221004284
 C         -2.0267743163       -4.3421489747       -1.7239360371
 C         -3.0646350063       -3.4136546628       -2.2781534645
 H         -3.1063244932       -3.2554837290       -3.3451937675
 H         -4.0298649997       -3.3799212749       -1.7935376442
 H         -1.3510869457       -4.8276314150       -2.4112479751
 H         -2.2939453535       -4.9444934803       -0.8689440710
 H         -1.1335493996       -2.3426945035       -2.0889519724
 O         -1.3525297293       -0.0542713735       -1.9877543018
