  62
        -98.94503793
 C         -2.4496603059       -1.1631166761       -0.0795369274
 C         -3.5707104876       -0.8879364176        0.7433223087
 C         -4.5298543219        0.0940771018        0.2229207037
 C         -4.2949903822        0.6734646830       -0.9686176035
 C         -5.1595553743        1.7294237750       -1.5929471623
 C         -4.6959050373        3.1372306082       -1.1936101532
 C         -4.4802855362        3.3138220497        0.3095252287
 H         -3.6402729497        2.6898570919        0.6241477854
 H         -4.1864133794        4.3525948525        0.4752777735
 C         -5.7080760293        2.9853289694        1.1705481659
 H         -6.6060649541        2.9892862925        0.5517367467
 H         -5.8282581159        3.7690158254        1.9214282864
 C         -5.6170273699        1.6567696476        1.9233354363
 H         -4.6715670597        1.6097387662        2.4694587487
 H         -6.4232255557        1.6280610035        2.6610775613
 C         -5.7399166591        0.3930979281        1.0627536230
 H         -5.8525447900       -0.4592228230        1.7390334391
 H         -6.6340741805        0.4579450380        0.4395988093
 H         -5.4380047100        3.8569544656       -1.5439972084
 H         -3.7515793755        3.3480446575       -1.7013123768
 H         -5.0944921620        1.6296260801       -2.6777517693
 H         -6.1917465536        1.5746876353       -1.2846129300
 O         -3.2066538735        0.3893149743       -1.7278882173
 C         -2.2549189615       -0.5287617999       -1.3063352785
 O         -1.3148842442       -0.6876826743       -2.1094923664
 H          0.8298887670       -1.9716427857       -1.1370063547
 C          0.9140657512       -1.4295072418       -0.2086966687
 C         -0.1345108548       -1.4441808719        0.6965012889
 C         -0.0106762277       -0.7072104708        1.8716634896
 C          1.1367763801        0.0168592479        2.1326874248
 C          2.1824470989        0.0295929750        1.2250870768
 C          2.0601695588       -0.6849715495        0.0418502229
 N          3.1097326975       -0.6787488784       -0.8908280549
 S          3.8923759101        0.7640615675       -1.2343223304
 O          3.0289191646        1.9081445325       -1.0538637890
 O          4.4530086648        0.5815010385       -2.5555967230
 C          5.2220830391        0.8059966766       -0.0484142576
 C          5.4163053641        1.9286632064        0.7320580547
 C          6.4649327165        1.9422075575        1.6388966196
 C          7.2972875374        0.8389659464        1.7479300741
 C          7.0907801519       -0.2799212581        0.9547196454
 C          6.0452741670       -0.2992133221        0.0456559028
 H          5.8528905766       -1.1472444581       -0.5899335171
 H          7.7398060977       -1.1363100069        1.0423804156
 H          8.1113907684        0.8512126498        2.4553055020
 H          6.6269434983        2.8117356373        2.2555084827
 H          4.7406324444        2.7615100757        0.6170069959
 H          2.8950920055       -1.1806036132       -1.7405158793
 H          3.0754986479        0.6014599738        1.4167583494
 H          1.2203840703        0.5795100664        3.0501364971
 H         -0.8340098773       -0.7026196732        2.5725792379
 C         -1.4266855669       -2.1707980913        0.4193284061
 H         -1.8248051245       -2.5363757533        1.3755719056
 C         -1.2837923896       -3.3435416932       -0.5277162668
 C         -0.6081521792       -4.5937322345       -0.0516310276
 C         -2.0885781754       -4.5831141216       -0.2826252812
 H         -2.4829819525       -5.1166132657       -1.1345020293
 H         -2.7416908826       -4.5918490822        0.5775398452
 H          0.0161427203       -5.1386743236       -0.7431135060
 H         -0.2540745057       -4.6086500722        0.9678897594
 H         -1.1382383765       -3.0469725764       -1.5596712219
 O         -3.7613016985       -1.4424692778        1.8582017719
