  62
        -98.93288829
 C         -1.1723795345       -1.6118138423        0.1717866752
 C         -1.9680336164       -0.7729111585        0.9896528833
 C         -3.0244929668        0.0141995361        0.3264983390
 C         -3.1817676536       -0.1119518124       -1.0038090853
 C         -4.1382091396        0.6348836565       -1.8931614761
 C         -3.6660460678        2.0718317951       -2.1818973098
 C         -3.0654134712        2.8097818302       -0.9866179518
 H         -2.6362502474        3.7451598208       -1.3562045668
 H         -2.2450227972        2.2175911259       -0.5755497222
 C         -4.0523373964        3.1565171601        0.1259468122
 H         -4.8197476473        3.8228631207       -0.2748253604
 H         -3.5035942513        3.7093386323        0.8927934638
 C         -4.7482418919        1.9708440112        0.7951015599
 H         -5.5142041981        1.5573003392        0.1446570529
 H         -5.2665964939        2.3546141730        1.6787967762
 C         -3.8136160155        0.8695847651        1.2874782122
 H         -4.3958311424        0.1719402994        1.9018630117
 H         -3.0736278633        1.3065564746        1.9665758685
 H         -4.5084810343        2.6407285091       -2.5783938966
 H         -2.8987152345        2.0226023032       -2.9586941956
 H         -5.1325834152        0.6292019647       -1.4564712261
 H         -4.1866995234        0.0888082151       -2.8378206922
 O         -2.3984309727       -0.9373568478       -1.7543595584
 C         -1.3687020134       -1.6878265057       -1.2076854534
 O         -0.7235678008       -2.3443497242       -2.0459846394
 O         -1.7875579753       -0.6633811028        2.2309729975
 C         -0.0310721837       -2.3453134130        0.8451950293
 C          1.2936384371       -2.0604507535        0.1772698446
 C          2.3682742554       -2.9413711382        0.2350571463
 C          3.5960948891       -2.6011138703       -0.3068553062
 C          3.7844217856       -1.3791497838       -0.9280010343
 C          2.7136714033       -0.5032041476       -1.0117391785
 C          1.4922797294       -0.8371506251       -0.4493576668
 H          0.6723614211       -0.1318170051       -0.5083513972
 N          2.8982012193        0.7636158396       -1.6311668850
 S          3.4397684352        1.9335325882       -0.5601618156
 O          3.4236344035        3.1838585530       -1.2850695183
 O          4.7117905177        1.5076560677       -0.0363976981
 C          2.2140680113        1.9573259251        0.7353227304
 C          2.3532185133        1.0943331634        1.8040605228
 C          1.3386064013        1.0266289874        2.7450466720
 C          0.2052244257        1.8112571586        2.5994995060
 C          0.0812743959        2.6733224007        1.5207906541
 C          1.0908655121        2.7439113314        0.5742476341
 H          1.0305656151        3.3992773901       -0.2806203668
 H         -0.8024003287        3.2817534759        1.4085686964
 H         -0.5901440893        1.7336947403        3.3235665990
 H          1.4232429422        0.3514653539        3.5811977467
 H          3.2472487336        0.4962188850        1.8785694204
 H          2.0564792440        1.1039581218       -2.0758908611
 H          4.7359412238       -1.0903034762       -1.3429323837
 H          4.4177927129       -3.2979765089       -0.2444422874
 H          2.2470425131       -3.9021748347        0.7078506826
 H          0.0166976594       -1.8815488536        1.8464347560
 C         -0.2727414505       -3.8334890014        1.0761697590
 C         -1.5991922533       -4.4742596146        0.8003898216
 C         -0.4191919658       -4.7947955284       -0.0642495080
 H          0.0325617031       -5.7721074924        0.0219285865
 H         -0.3982275445       -4.3815989306       -1.0605523424
 H         -1.9580321856       -5.2237470481        1.4902293313
 H         -2.3810070663       -3.8582969143        0.3796327873
 H          0.2476018076       -4.2048206413        1.9531640503
