  62
        -98.93880255
 C          1.9001314681        0.7312837060       -0.4061058945
 C          2.9486246539        1.1264441966        0.4568116069
 C          4.2920864812        0.6113984194        0.1433652805
 C          4.4541070936       -0.2123320833       -0.9090813330
 C          5.6980502281       -0.8582886019       -1.4824213861
 C          6.9893362329       -0.9260128668       -0.6706906447
 C          6.9209535549       -1.8130250455        0.5717440333
 H          7.8651395582       -1.7149203068        1.1120756630
 H          6.8276847314       -2.8539759756        0.2518427276
 C          5.7686180121       -1.5201412023        1.5294958844
 H          5.8492275681       -2.2142976478        2.3705317228
 H          4.8176295347       -1.7270433940        1.0339154254
 C          5.7352532058       -0.1027258690        2.0981711788
 H          6.6973095437        0.1316476892        2.5577350897
 H          4.9756148208       -0.0824835857        2.8841656601
 C          5.3874765921        1.0076312896        1.0908139307
 H          6.2675682853        1.3363787368        0.5434143603
 H          5.0108728696        1.8668760862        1.6532635495
 H          7.3217591206        0.0732835707       -0.4055293419
 H          7.7503153994       -1.3466563261       -1.3337692876
 H          5.9060315084       -0.3263830125       -2.4175706548
 H          5.4003657046       -1.8728418030       -1.7658644255
 O          3.4083782678       -0.5708879461       -1.7105484627
 C          2.1168367342       -0.1231353385       -1.4849982929
 O          1.2779518541       -0.5478219254       -2.3020985038
 O          2.7721657215        1.8839261253        1.4480516120
 C          0.4940069006        1.2284131906       -0.1207612615
 C         -0.3869393357        0.0517062305        0.2140385361
 C         -0.1177334539       -0.6780488612        1.3695005019
 C         -0.8914345907       -1.7684545187        1.7176688139
 C         -1.9550817083       -2.1565975531        0.9202089682
 C         -2.2291777382       -1.4373622420       -0.2333451267
 C         -1.4536584884       -0.3382448281       -0.5790992272
 H         -1.6805002576        0.2039817199       -1.4834765032
 N         -3.3362659419       -1.8112172607       -1.0297493314
 S         -4.8264065184       -1.5479912134       -0.3064357252
 O         -5.0016337460       -2.4935837510        0.7656957416
 O         -5.7997046976       -1.5994582273       -1.3735171208
 C         -4.6987637085        0.1071271830        0.3463508464
 C         -4.9828519430        1.1706623900       -0.4870206333
 C         -4.7889354982        2.4598185419       -0.0186969661
 C         -4.3021345041        2.6613400454        1.2639008967
 C         -4.0193002310        1.5827498863        2.0875467255
 C         -4.2178672381        0.2910158999        1.6270988306
 H         -4.0121407014       -0.5729358173        2.2372664010
 H         -3.6387948305        1.7422297481        3.0836645058
 H         -4.1428466520        3.6658282368        1.6237206221
 H         -5.0099068218        3.3020015171       -0.6544963731
 H         -5.3612365202        0.9702582753       -1.4766873727
 H         -3.3258998712       -1.3762388143       -1.9419757994
 H         -2.5813844540       -2.9949936873        1.1791877177
 H         -0.6671780102       -2.3225428951        2.6166600245
 H          0.7136419346       -0.3759282736        1.9916018120
 H          0.5852901712        1.8503987466        0.7807918511
 C         -0.0295500241        2.0851952827       -1.2532628449
 C         -1.1987725454        2.9922664994       -1.0131776168
 C          0.1718060417        3.5686119552       -1.1995416171
 H          0.3926098001        4.0911096237       -2.1182413943
 H          0.6818841536        3.9704121208       -0.3365915793
 H         -1.9218397007        3.1225939949       -1.8039569674
 H         -1.6260414092        2.9993009860       -0.0219764627
 H          0.0573741789        1.6051411772       -2.2214514565
