  62
        -98.93968859
 C          2.1195395600        0.3755617796        0.2733159111
 C          2.8229040500       -0.8370843404        0.0540752509
 C          4.1763418900       -0.7196759604       -0.5021916390
 C          4.6611386000        0.5016520796       -0.7904519489
 C          6.0399788001        0.7767567396       -1.3151512389
 C          7.0324698901        1.0217149994       -0.1700828588
 C          6.9786518900       -0.0375259107        0.9307980411
 H          7.7416103900        0.2205211992        1.6684613611
 H          6.0113690600        0.0209421293        1.4351974511
 C          7.2065341699       -1.4744331406        0.4410359009
 H          7.8989454999       -1.9715221207        1.1237097209
 H          7.6761857399       -1.4607872606       -0.5431475791
 C          5.9420275699       -2.3339438306        0.3865132708
 H          5.4170403899       -2.2754033007        1.3434794008
 H          6.2441054799       -3.3749395706        0.2433903007
 C          4.9477988199       -1.9890625604       -0.7295593592
 H          5.4683454899       -1.9570556704       -1.6889930491
 H          4.2022869199       -2.7887837404       -0.7694828092
 H          8.0395575101        1.0626049694       -0.5889706088
 H          6.8109721201        1.9928288194        0.2784787513
 H          6.3671457200       -0.0673041204       -1.9192286589
 H          5.9971061001        1.6677156896       -1.9437674588
 O          3.9528826601        1.6396842296       -0.5913600188
 C          2.6690153401        1.6157881396       -0.0557891788
 O          2.1591692501        2.7441116796        0.0615294913
 O          2.3370873599       -1.9699659604        0.3204169708
 C          0.7302721400        0.2512501896        0.8708315710
 C         -0.3229729800        0.1354445898       -0.2021490690
 C         -0.3425519899        0.9968853399       -1.2953878989
 C         -1.3189553099        0.8768585700       -2.2670116689
 C         -2.3066544400       -0.0869459900       -2.1565693090
 C         -2.3002110500       -0.9465288101       -1.0656694991
 C         -1.3050176600       -0.8392237902       -0.1035504091
 H         -1.3105734101       -1.5250135103        0.7298050108
 N         -3.3035396801       -1.9248181500       -0.8996201792
 S         -4.3309320401       -1.7174928401        0.4087509408
 O         -3.5651170901       -1.7137198903        1.6270167508
 O         -5.3389071101       -2.7440770401        0.2753358307
 C         -5.0589855700       -0.1126586600        0.1287360109
 C         -4.3586876399        1.0141051999        0.5112607710
 C         -4.8858472799        2.2615902199        0.2168913212
 C         -6.0959251499        2.3600860801       -0.4527649988
 C         -6.7881992499        1.2186838001       -0.8286937490
 C         -6.2639494400       -0.0313470199       -0.5416889491
 H         -6.7688555700       -0.9449723499       -0.8114480892
 H         -7.7306257199        1.2990464602       -1.3460878890
 H         -6.5016089598        3.3330242501       -0.6809580988
 H         -4.3462622498        3.1479045999        0.5101865712
 H         -3.4233586400        0.9015491598        1.0343648810
 H         -3.8545894601       -2.0831489099       -1.7323409293
 H         -3.0738393400       -0.1756186198       -2.9110599491
 H         -1.3180654799        1.5481786101       -3.1121535689
 H          0.4120466401        1.7653123598       -1.3689253888
 H          0.7432658500       -0.7074118304        1.4142425209
 C          0.4039674401        1.3419670595        1.8832935311
 C         -0.6707771899        2.3614932896        1.6694026112
 C         -0.8712446300        1.2651947595        2.6701929611
 H         -0.8445366300        1.5119096894        3.7210049811
 H         -1.5582949000        0.4656078996        2.4298217310
 H         -0.4859798099        3.3626042096        2.0274549013
 H         -1.2281928299        2.3265628297        0.7463699312
 H          1.2857021201        1.6781152994        2.4184700112
