  62
        -98.93780703
 C         -2.0155090775       -1.4004257190        0.0748161697
 C         -2.3432077493       -0.4057045321       -0.8763382758
 C         -3.7102025044        0.1426119222       -0.8073771196
 C         -4.5650470801       -0.3078085073        0.1256043454
 C         -6.0042727341        0.0817480193        0.3516492521
 C         -6.3572362462        1.5736128364        0.2734581834
 C         -5.2514094004        2.5295306178        0.7443444642
 H         -5.6736844603        3.2327328666        1.4646557018
 H         -4.4659116376        1.9717401062        1.2574840303
 C         -4.6368862885        3.3419637614       -0.3982008549
 H         -5.4395472694        3.6884228523       -1.0529666749
 H         -4.1526919451        4.2272708974        0.0213407791
 C         -3.5899456122        2.6084046383       -1.2354405172
 H         -2.6836207925        2.4574862071       -0.6421202149
 H         -3.3186997994        3.2536596374       -2.0747260995
 C         -4.0236736900        1.2392052166       -1.7846890156
 H         -5.0746218106        1.2417338744       -2.0626975921
 H         -3.4278323532        1.0306857501       -2.6773154236
 H         -6.6354388111        1.8299586834       -0.7479115620
 H         -7.2483000726        1.7187678426        0.8865615177
 H         -6.6218316171       -0.4692954439       -0.3636673888
 H         -6.2472587661       -0.2997768953        1.3462952085
 O         -4.2108680261       -1.2694305234        1.0232846754
 C         -2.9477048180       -1.8290114827        1.0253618207
 O         -2.7759182911       -2.6940747221        1.9071703508
 H          0.2892004574        0.3247821770       -0.6662183939
 C          0.7465141162        0.0108817535        0.2603158840
 C          0.3624948349       -1.1935412506        0.8329721466
 C          0.9528327339       -1.5777577323        2.0310094386
 C          1.8985535207       -0.7724573039        2.6423044028
 C          2.2752194480        0.4294560951        2.0710120011
 C          1.6882468794        0.8224824475        0.8748926960
 N          2.0755315915        2.0378523971        0.2782727738
 S          3.7224172840        2.2504057293        0.0528888458
 O          4.3186639557        2.7121427563        1.2819607880
 O          3.8495984160        3.1377077344       -1.0816477819
 C          4.3345032276        0.6216176858       -0.3421765230
 C          5.1874451099       -0.0257920573        0.5278422843
 C          5.5984165308       -1.3147429649        0.2277983040
 C          5.1469875088       -1.9321288910       -0.9280384464
 C          4.2930048266       -1.2664602024       -1.7939997673
 C          3.8792804833        0.0220455148       -1.4998421248
 H          3.2172189339        0.5671213692       -2.1537190028
 H          3.9439625939       -1.7467627765       -2.6940217340
 H          5.4617577194       -2.9379654457       -1.1571420890
 H          6.2639998619       -1.8341492401        0.8981425283
 H          5.5109425072        0.4899855403        1.4171008848
 H          1.5681831830        2.2404409578       -0.5713605400
 H          3.0083410003        1.0715137358        2.5321120889
 H          2.3467107500       -1.0834463758        3.5735232786
 H          0.6554810667       -2.5096690552        2.4893927526
 C         -0.6550444923       -2.0772678410        0.1515967721
 H         -0.8046566633       -2.9623003950        0.7838547984
 C         -0.1431403036       -2.5365351275       -1.2010664884
 C          0.9069394297       -3.6031340152       -1.2538429903
 C         -0.4942834791       -3.9078326642       -1.6900789763
 H         -0.6922568590       -4.0439502487       -2.7427535056
 H         -1.1071180425       -4.5252805092       -1.0491849423
 H          1.6752861848       -3.5317028288       -2.0076752222
 H          1.2471081834       -4.0165556043       -0.3167111333
 H         -0.0973241905       -1.7442370256       -1.9359225321
 O         -1.5549048689        0.0217452933       -1.7626914844
