  62
        -98.94526820
 C         -1.4678875653       -1.2676797499       -0.4411072642
 C         -2.7995625908       -1.3710633958        0.0405080015
 C         -3.7690899420       -0.4188262153       -0.5086245652
 C         -3.3712385405        0.4777397628       -1.4288963263
 C         -4.2414299321        1.5070325892       -2.0978568909
 C         -4.4251062187        2.7925439969       -1.2798401823
 C         -5.3314316349        2.6596831287       -0.0551845521
 H         -5.5492642671        3.6713797661        0.2928288859
 H         -6.2776152659        2.2063596864       -0.3525401499
 C         -4.7173337372        1.8617053137        1.1037356007
 H         -3.6354939545        1.7898195936        0.9643335943
 H         -4.8813180258        2.3974749354        2.0415793226
 C         -5.2900658796        0.4550312301        1.2794232379
 H         -6.3447614880        0.5213012528        1.5555680802
 H         -4.7557501468       -0.0307395547        2.0998639225
 C         -5.1645145768       -0.4378060496        0.0382387660
 H         -5.8764199616       -0.1240886997       -0.7248795534
 H         -5.3926512044       -1.4655755841        0.3309165053
 H         -4.8572112216        3.5437077738       -1.9452589234
 H         -3.4409244579        3.1518421068       -0.9683449259
 H         -3.7507702860        1.7651580688       -3.0388176541
 H         -5.2168464917        1.0736479702       -2.3211146482
 O         -2.0940492940        0.5316528413       -1.8852430810
 C         -1.1061940526       -0.3123407918       -1.3915482851
 O          0.0104028623       -0.1133871193       -1.9058587551
 O         -3.1633673376       -2.2318645531        0.8859737334
 C         -0.4535463925       -2.2223297592        0.1698702048
 C          0.2259180723       -1.5364614139        1.3323688402
 C         -0.1427420734       -1.8473965730        2.6366576425
 C          0.4477115692       -1.2004620233        3.7070900679
 C          1.4113519938       -0.2320803658        3.4951867311
 C          1.7856018070        0.0901041680        2.1939921191
 C          1.1989309296       -0.5683425007        1.1226660377
 H          1.4696859910       -0.2951106151        0.1171317151
 N          2.7793273466        1.0486747789        1.9667598587
 S          2.8127131858        2.0056050682        0.5930535754
 O          3.6320232754        3.1357417565        0.9847429315
 O          1.4840735907        2.3235907610        0.1272923292
 C          3.7312742552        1.0246967714       -0.5737238790
 C          5.0443794413        0.7386858801       -0.2508693366
 C          5.7981161457       -0.0295843241       -1.1218463591
 C          5.2288285559       -0.4963877662       -2.2976465166
 C          3.9123050399       -0.1958202235       -2.6083183495
 C          3.1509157196        0.5746904693       -1.7413732020
 H          2.1172445436        0.8053991493       -1.9493489823
 H          3.4637594300       -0.5592702985       -3.5194097933
 H          5.8131928989       -1.0980832493       -2.9759867766
 H          6.8229206001       -0.2641499265       -0.8830030911
 H          5.4486624394        1.1289237626        0.6682342587
 H          3.0942247327        1.5449508481        2.7868598742
 H          1.8704600522        0.2781895999        4.3283709216
 H          0.1513179823       -1.4480450285        4.7152585394
 H         -0.9134093197       -2.5859580871        2.8027465925
 H         -1.0524967732       -3.0474927622        0.5796598672
 C          0.5420933007       -2.7978632451       -0.8148594283
 C          1.2937985196       -4.0378819436       -0.4366759397
 C          0.2333459900       -4.0970826226       -1.4938929002
 H          0.5336175215       -4.2224872503       -2.5232147240
 H         -0.7029477320       -4.5787527847       -1.2517972463
 H          2.3263485179       -4.1241120123       -0.7375330537
 H          1.0756590480       -4.4800551902        0.5237148156
 H          1.0649099351       -2.0509223946       -1.3963856825
