  62
        -98.93431551
 C          2.0140725856        0.3291419767       -0.1971276626
 C          3.0920589264        1.2481421026       -0.2567363718
 C          4.3370918111        0.8362099755        0.4021973414
 C          4.3807378242       -0.3506526154        1.0342672762
 C          5.5958568532       -0.9195886889        1.7066011046
 C          6.4138545091       -1.7838688882        0.7369568647
 C          6.6986533743       -1.1068829947       -0.6037795710
 H          7.3080408883       -1.7957601560       -1.1928567579
 H          5.7572153126       -0.9715108002       -1.1412156237
 C          7.4173836939        0.2450291748       -0.4925577256
 H          7.8782602332        0.3397057198        0.4912918121
 H          8.2211107726        0.2759282197       -1.2312081480
 C          6.5255927743        1.4603391227       -0.7534993515
 H          5.9891117273        1.3250591797       -1.6960315624
 H          7.1696751931        2.3364284739       -0.8666989688
 C          5.5018253623        1.7841277538        0.3418439158
 H          5.0764202350        2.7668762330        0.1186975654
 H          6.0040321170        1.8387754947        1.3098097794
 H          5.8602974661       -2.7057899978        0.5440347039
 H          7.3558871994       -2.0482251643        1.2208477606
 H          6.2080291276       -0.1049678010        2.0887071040
 H          5.2672672877       -1.5391009002        2.5427141110
 O          3.3212732861       -1.1947148163        1.0935373051
 C          2.1143823420       -0.8911088168        0.4728391826
 O          1.2483498578       -1.7731269493        0.6068481041
 O          3.0120140447        2.3664207065       -0.8333546792
 C          0.7165134951        0.7325567098       -0.8894918318
 C         -0.4216021144        0.6328852648        0.0916836409
 C         -0.5359129102        1.6773720696        1.0118903757
 C         -1.5011268956        1.6688985551        1.9983294518
 C         -2.4070871650        0.6252488591        2.0751251805
 C         -2.3077876692       -0.4180168996        1.1662332746
 C         -1.3143538625       -0.4224346738        0.1949503760
 H         -1.2604602590       -1.2771551167       -0.4531686550
 N         -3.2346258488       -1.4853753122        1.1825203733
 S         -4.2769698991       -1.5457059005       -0.1263549282
 O         -5.2658210883       -2.5461428812        0.2073343158
 O         -3.5279168383       -1.7537760486       -1.3368020411
 C         -5.0327849196        0.0715680314       -0.1477318881
 C         -4.3586772531        1.1164587419       -0.7484972380
 C         -4.9051615261        2.3886026655       -0.6872512642
 C         -6.1085611887        2.5935053408       -0.0298600562
 C         -6.7746727649        1.5335901667        0.5666105917
 C         -6.2302061103        0.2604918998        0.5141700287
 H         -6.7137136929       -0.5931265010        0.9614340659
 H         -7.7117925159        1.6954864721        1.0744967312
 H         -6.5291831902        3.5856047415        0.0163613954
 H         -4.3855812767        3.2123661608       -1.1496658863
 H         -3.4260042710        0.9211815251       -1.2529079925
 H         -3.7728793252       -1.5384373793        2.0364308609
 H         -3.1748382969        0.6139166820        2.8343518110
 H         -1.5582688208        2.4839558511        2.7033661180
 H          0.1652298368        2.4985026682        0.9507470367
 H          0.8539806845        1.8068124517       -1.0936599539
 C          0.6324939942        0.0794767085       -2.2630617487
 C          0.4350641831       -1.3822047209       -2.5255636337
 C         -0.6125027525       -0.3956742890       -2.9490776268
 H         -0.7123637041       -0.1889467897       -4.0048927173
 H         -1.5514906117       -0.3953952631       -2.4192772243
 H          1.0464797065       -1.8446976286       -3.2881072115
 H          0.2410430282       -2.0315224794       -1.6867067775
 H          1.3610807575        0.5539397189       -2.9178858980
