  62
        -98.93765705
 C          2.3937716299        1.0918022897        0.0264881192
 C          3.3971563699        0.6386265901        0.9219748494
 C          4.4457897098       -0.2391522502        0.3757854598
 C          4.4049233897       -0.5773213509       -0.9261637000
 C          5.3431045096       -1.4089372314       -1.7758392096
 C          6.4375395397       -2.2537972111       -1.1296713692
 C          5.9279846097       -3.4543360006       -0.3322567585
 H          5.5250741296       -4.1892755410       -1.0337431881
 H          6.7778458597       -3.9129589204        0.1776893616
 C          4.8371166898       -3.1513651200        0.6919054714
 H          3.9518032897       -2.7650323703        0.1825630712
 H          4.5502798898       -4.0951189498        1.1635833219
 C          5.2338119699       -2.1805031794        1.8018958908
 H          6.1338060299       -2.5424792292        2.3028112109
 H          4.4233491899       -2.1699954390        2.5356661308
 C          5.4730897699       -0.7283799897        1.3560511100
 H          6.4764930599       -0.5979668699        0.9578937698
 H          5.3840548800       -0.0862364092        2.2371121696
 H          7.0799505797       -1.6297111208       -0.5155297196
 H          7.0565516096       -2.6384547716       -1.9447759091
 H          4.7025470196       -2.0557304617       -2.3840065992
 H          5.8134370196       -0.7037561018       -2.4700907601
 O          3.4180396097       -0.1212282113       -1.7501839902
 C          2.4006340997        0.7108053789       -1.3135438106
 O          1.5963368297        1.0171276385       -2.2182199507
 O          3.4260372600        0.9714405608        2.1366082192
 C          1.3432160199        2.0279579600        0.5991387587
 C          0.0318918299        1.3301464602        0.8730330792
 C         -0.4719840800        1.2466476109        2.1658569893
 C         -1.6926923800        0.6416853811        2.4094699797
 C         -2.4341159401        0.1066019406        1.3714634401
 C         -1.9371078802        0.1798076198        0.0767734800
 C         -0.7155040102        0.7913751397       -0.1647957004
 H         -0.3327631802        0.8419510191       -1.1736382705
 N         -2.6763718303       -0.3777427107       -0.9844654697
 S         -4.2452811303        0.1846464492       -1.2034406999
 O         -4.5464011004       -0.0497347116       -2.5988680797
 O         -4.3895629402        1.5435001495       -0.7335482706
 C         -5.2361068402       -0.9100408502       -0.2077060492
 C         -6.0404419401       -0.3952997496        0.7901129306
 C         -6.8124379601       -1.2656599492        1.5440774311
 C         -6.7671171102       -2.6274149293        1.2875634419
 C         -5.9556395703       -3.1281922399        0.2801712121
 C         -5.1826148003       -2.2634881304       -0.4780454584
 H         -4.5430752304       -2.6098942608       -1.2728249983
 H         -5.9234156603       -4.1877559300        0.0834172427
 H         -7.3682502002       -3.3027774990        1.8756580323
 H         -7.4445125901       -0.8784541887        2.3270218809
 H         -6.0392483301        0.6701865104        0.9557494500
 H         -2.1766348803       -0.3581544712       -1.8626527297
 H         -3.3855196001       -0.3659622493        1.5539922604
 H         -2.0711279599        0.5856188117        3.4186377798
 H          0.1051302801        1.6540912814        2.9831755590
 H          1.7531980100        2.3546321605        1.5643033085
 C          1.1146524199        3.2560177296       -0.2621485519
 C          0.5402812200        4.4886136499        0.3661872474
 C          1.9761199200        4.4650424996       -0.0631080726
 H          2.2675128199        5.0374030691       -0.9309937830
 H          2.7365212500        4.4154830200        0.7026101473
 H         -0.1605145800        5.0780932396       -0.2050205528
 H          0.3273054401        4.4571376405        1.4239274575
 H          0.8152606098        3.0220899890       -1.2758692418
