  62
        -98.94024998
 C         -1.2726227838       -1.5200562464        0.3159723386
 C         -1.9524316283       -0.5960156202        1.1508462406
 C         -3.0792895425        0.1195285415        0.5418514945
 C         -3.3697986488       -0.0793035920       -0.7563265004
 C         -4.5135638215        0.5380952703       -1.5146280011
 C         -4.2334775615        1.9538323642       -2.0360168432
 C         -4.2213828488        3.0491797773       -0.9694013955
 H         -4.2449875732        4.0059550725       -1.4946630388
 H         -5.1315663505        2.9837771800       -0.3723998873
 C         -2.9937203312        3.0239281676       -0.0485414002
 H         -2.6096565672        4.0391780907        0.0643560373
 H         -2.2017021872        2.4292788148       -0.5096122652
 C         -3.2604748138        2.4876403381        1.3574612009
 H         -2.3127947958        2.4639688210        1.9002306151
 H         -3.9373899668        3.1625018670        1.8861995846
 C         -3.8563029819        1.0755311877        1.3962513398
 H         -3.8090899527        0.7126321286        2.4262648762
 H         -4.9001822567        1.0984483005        1.0827400229
 H         -5.0143329582        2.1920764545       -2.7619919851
 H         -3.2778985570        1.9485774888       -2.5650715342
 H         -4.7038369053       -0.1131169945       -2.3705450128
 H         -5.4038794105        0.5509653885       -0.8846684913
 O         -2.6431600690       -0.9127018507       -1.5452699932
 C         -1.5834716959       -1.6574823031       -1.0378677721
 O         -1.0283845943       -2.3763869564       -1.8880476896
 H          1.4282520211       -0.2832718983        0.3698414032
 C          1.7694802681       -1.1845350041       -0.1203880302
 C          1.0603881566       -2.3670500622        0.0547411280
 C          1.5063836418       -3.5131108639       -0.5906508515
 C          2.6316550868       -3.4708340628       -1.3934998366
 C          3.3467329489       -2.2980006336       -1.5474406286
 C          2.9112368630       -1.1449734847       -0.9043404141
 N          3.6147660684        0.0616972501       -1.0443720408
 S          3.8544295302        1.0473784478        0.2868432769
 O          5.0773392966        1.7643654429       -0.0084000944
 O          3.8396078567        0.2933900690        1.5178339776
 C          2.5045557416        2.2047640878        0.2394939646
 C          2.3532727076        2.9753612861       -0.8967237884
 C          1.3438027353        3.9229383644       -0.9336366062
 C          0.5117190347        4.0879392025        0.1634418744
 C          0.6736721760        3.3042158508        1.2948299239
 C          1.6791503319        2.3511321313        1.3357592457
 H          1.8351773253        1.7203841240        2.1972414086
 H          0.0242127010        3.4295191854        2.1466521115
 H         -0.2657868468        4.8346876456        0.1388165064
 H          1.2107564871        4.5328246888       -1.8126434438
 H          3.0301522469        2.8270696869       -1.7215140942
 H          4.4479818112       -0.0028000067       -1.6111477322
 H          4.2321207711       -2.2686908824       -2.1647155953
 H          2.9612186485       -4.3655958627       -1.8997040569
 H          0.9565202344       -4.4336192088       -0.4856794739
 C         -0.1589505025       -2.3406276167        0.9405323475
 H          0.1077339231       -1.7896370162        1.8583452711
 C         -0.5977369301       -3.7295179681        1.3843270475
 C         -1.9935919027       -3.9790104768        1.8695545686
 C         -1.5321737172       -4.5778105640        0.5765809006
 H         -1.3547959666       -5.6428291729        0.5406591196
 H         -1.9107044574       -4.1676166030       -0.3467008115
 H         -2.6912394145       -3.1551496126        1.8320439750
 H         -2.1324755035       -4.6299373415        2.7196346543
 H          0.1944646524       -4.2490520000        1.9153447060
 O         -1.6419615336       -0.3905780021        2.3544820849
