  62
        -98.94027247
 C         -2.0088630899       -0.0968579494       -0.4734864595
 C         -2.8159334800        0.5510751711        0.4945843201
 C         -4.1437755900       -0.0433680987        0.7134815604
 C         -4.5002255199       -1.1636370791        0.0616947109
 C         -5.8043490700       -1.8996245690        0.2080291413
 C         -6.9409837799       -1.3324512894       -0.6534870690
 C         -7.5115843499        0.0048092008       -0.1793503698
 H         -8.4340403499        0.1753105305       -0.7380903199
 H         -7.7792410300       -0.0695363886        0.8751248903
 C         -6.5766202699        1.2035761907       -0.3922434103
 H         -5.8001470599        0.9355990303       -1.1125592702
 H         -7.1410269399        2.0330236305       -0.8243988708
 C         -5.9116396600        1.7228539713        0.8826037594
 H         -5.2463608899        2.5464348112        0.6112483790
 H         -6.6739809600        2.1153350417        1.5591604692
 C         -5.0839081600        0.6731231417        1.6355710400
 H         -5.7419765500       -0.0365152280        2.1363858503
 H         -4.4826784900        1.1868083621        2.3895904097
 H         -6.5837270299       -1.2327953600       -1.6811640091
 H         -7.7484169299       -2.0683637594       -0.6529382787
 H         -5.6164087600       -2.9292355392       -0.1042460382
 H         -6.1076116300       -1.9047609385        1.2554121413
 O         -3.6748785299       -1.7867453195       -0.8219689187
 C         -2.4315206899       -1.2594600297       -1.1239345190
 O         -1.7965200199       -1.9075968102       -1.9815046586
 O         -2.4690561300        1.5646350715        1.1511453596
 C         -0.6264288899        0.3951904704       -0.8700078998
 C          0.4251689101       -0.2052082191        0.0261109006
 C          0.3376310900       -0.0981301884        1.4107041705
 C          1.3153738300       -0.6468675980        2.2202717208
 C          2.4002942200       -1.3061340483        1.6685386312
 C          2.4982962700       -1.4145621190        0.2882780613
 C          1.5139585001       -0.8657216094       -0.5232745691
 H          1.5875978601       -0.9679819900       -1.5976790790
 N          3.6234393801       -2.0533770193       -0.2738950184
 S          5.1010617501       -1.3423518891        0.0873649613
 O          6.0094021901       -1.7905313897       -0.9433103185
 O          5.4640218000       -1.6657474784        1.4431664615
 C          4.7811847401        0.4051578408       -0.0669729296
 C          4.7647189901        0.9570724802       -1.3327359899
 C          4.4184734501        2.2905305501       -1.4784417206
 C          4.0820239601        3.0417612007       -0.3625569510
 C          4.1058481300        2.4734657113        0.9012618293
 C          4.4584774300        1.1421210714        1.0546561700
 H          4.4923541500        0.6654098719        2.0202323502
 H          3.8441564500        3.0607512218        1.7666138690
 H          3.7961409301        4.0747352306       -0.4794926315
 H          4.4025218201        2.7371562296       -2.4597339508
 H          5.0334285301        0.3396686397       -2.1752025296
 H          3.5443984301       -2.1938014298       -1.2712824683
 H          3.1761281200       -1.7329439380        2.2836424414
 H          1.2333119700       -0.5595673174        3.2931109608
 H         -0.5018037500        0.4259932718        1.8414936302
 H         -0.4631141999       -0.0042776901       -1.8834175596
 C         -0.5299430999        1.9132804604       -0.9595028105
 C          0.3502711301        2.7427078208       -0.0776579510
 C          0.7135681501        2.5418937301       -1.5157540608
 H          0.6135086501        3.3698108897       -2.2007642213
 H          1.5449911301        1.8866516100       -1.7297732005
 H         -0.0267209399        3.7038905210        0.2359088085
 H          0.9458858301        2.2428878812        0.6696885393
 H         -1.4729722299        2.3621478702       -1.2523544208
