  62
        -98.94426723
 C         -1.3265662189       -1.4278415464        0.6428293320
 C         -2.1330703064       -1.0112169272       -0.4460885253
 C         -3.1061764933        0.0488831770       -0.1514296241
 C         -3.1708238533        0.5826845158        1.0805628981
 C         -4.0999842288        1.6782698928        1.5261131524
 C         -3.5862623814        3.0869257845        1.1974503824
 C         -3.6664629640        3.4822358387       -0.2777300287
 H         -4.6727302853        3.2897437369       -0.6523699034
 H         -3.4993430489        4.5601645695       -0.3275976894
 C         -2.6365241662        2.7869627186       -1.1796930809
 H         -2.1864995858        3.5238046033       -1.8500529192
 H         -1.8200498624        2.3890729856       -0.5708294772
 C         -3.2081094207        1.6717107137       -2.0562850690
 H         -3.9002994765        2.1003751392       -2.7852388483
 H         -2.3807140017        1.2132330893       -2.6042547473
 C         -3.9382068868        0.5638463386       -1.2864678438
 H         -4.8980003761        0.9287213431       -0.9212885795
 H         -4.1157830651       -0.2670959247       -1.9739304734
 H         -2.5497936190        3.1698428174        1.5347246619
 H         -4.1836186300        3.7962688091        1.7754182390
 H         -5.0843148704        1.5334512737        1.0800579535
 H         -4.1915000475        1.5890352172        2.6108602233
 O         -2.3704608078        0.1669379609        2.0973618428
 C         -1.4029571594       -0.8031501699        1.8894562595
 O         -0.6774352447       -1.0189024172        2.8826420070
 H          0.5765839911        0.0312809538       -0.0749154125
 C          0.9763430579       -0.6540403999       -0.8054510108
 C          0.6491683469       -2.0006901234       -0.7210940690
 C          1.1371756620       -2.8600791299       -1.6957674515
 C          1.9218918506       -2.3684602861       -2.7260392970
 C          2.2474068425       -1.0263197619       -2.8021560403
 C          1.7596373883       -0.1575601852       -1.8316674198
 N          2.0377309277        1.2156614240       -1.8671457697
 S          2.1131912911        2.1037778110       -0.4563368020
 O          0.7977385606        2.2983499031        0.1003858658
 O          2.8192906421        3.3083913370       -0.8383494928
 C          3.1362252902        1.1386010618        0.6420277408
 C          4.4684395493        0.9965881377        0.3026651067
 C          5.2900314296        0.2249228374        1.1068618699
 C          4.7673437180       -0.3953255521        2.2320143202
 C          3.4309334112       -0.2387567683        2.5632340875
 C          2.6048765323        0.5362080414        1.7635830820
 H          1.5606413485        0.6681181123        2.0031586279
 H          3.0148021160       -0.7178355976        3.4354084443
 H          5.4038199994       -1.0015614096        2.8569598389
 H          6.3314007946        0.1067652150        0.8546241918
 H          4.8396769439        1.5040507772       -0.5727490935
 H          2.7153022684        1.5111715382       -2.5530507629
 H          2.8558072820       -0.6497458151       -3.6097751887
 H          2.2877635556       -3.0443964078       -3.4840128448
 H          0.8879618636       -3.9079669730       -1.6644080570
 C         -0.1958034862       -2.4259471699        0.4570724597
 H          0.4285568134       -2.3058451671        1.3591573787
 C         -0.6154063898       -3.8877679193        0.4205656630
 C         -1.9435358617       -4.3287837015        0.9580771845
 C         -1.6691963593       -4.4006567312       -0.5125827105
 H         -1.5272884559       -5.3744774235       -0.9584086224
 H         -2.1473563377       -3.6839578772       -1.1605168538
 H         -1.9885908307       -5.2478745568        1.5232814584
 H         -2.6181192181       -3.5630040394        1.3139429037
 H          0.2198382524       -4.5523852147        0.6190941997
 O         -2.0518836657       -1.4838005533       -1.6086047937
