  62
        -98.95138603
 C         -1.8192756278       -1.2603706779       -0.2882033458
 C         -2.9116050661       -0.5808045789        0.2980235546
 C         -3.2316773312        0.7288927483       -0.2780162228
 C         -2.5086249855        1.1989829561       -1.3110091832
 C         -2.6981674897        2.5270654389       -1.9912086867
 C         -1.9871043399        3.6806870545       -1.2699144527
 C         -2.6617599670        4.1494070116        0.0200053156
 H         -2.2084510806        5.1056446195        0.2890517590
 H         -3.7217084268        4.3295156041       -0.1656769311
 C         -2.4975422041        3.1816892743        1.2003724395
 H         -1.6676007501        2.5000690196        0.9956420120
 H         -2.2237633062        3.7451761148        2.0961774689
 C         -3.7508321187        2.3738600765        1.5404360376
 H         -4.5357071755        3.0487013079        1.8908160410
 H         -3.5041563604        1.6911650196        2.3579371608
 C         -4.3073704547        1.5405713196        0.3786386305
 H         -4.7938486122        2.1890340570       -0.3496422060
 H         -5.0490292951        0.8460053276        0.7816517092
 H         -1.9418341735        4.5250066065       -1.9621771588
 H         -0.9624489295        3.3722112810       -1.0452841598
 H         -2.2714647913        2.4297002528       -2.9917633825
 H         -3.7614342123        2.7503190034       -2.0846675189
 O         -1.4983996207        0.4926369747       -1.8796843110
 C         -1.0952447625       -0.7212439186       -1.3507793750
 O         -0.1048729069       -1.2256729509       -1.9168496270
 O         -3.5789770880       -1.0433028838        1.2640635005
 C         -1.3413741020       -2.5652767057        0.3214999296
 C          0.0971594823       -2.4186386573        0.7556248861
 C          1.0481182968       -3.4213472629        0.6113550976
 C          2.3608843540       -3.2060849331        0.9957054123
 C          2.7600160415       -1.9826741807        1.5024768584
 C          1.8132880536       -0.9777915779        1.6603705769
 C          0.4920435367       -1.2134165800        1.3223097774
 H         -0.2284659968       -0.4202084717        1.4593755174
 N          2.1597285659        0.3091264774        2.1288891563
 S          2.0242165239        1.5417849353        0.9949541348
 O          2.4986666456        2.7306914181        1.6712427053
 O          0.6819710682        1.5946548749        0.4801132423
 C          3.1932280967        1.0768649826       -0.2696707327
 C          4.4752681368        1.5881535329       -0.1921051455
 C          5.4230977605        1.1696486779       -1.1109708286
 C          5.0772596239        0.2402454056       -2.0809172210
 C          3.7881739111       -0.2651322867       -2.1421120821
 C          2.8312310715        0.1520987754       -1.2283269048
 H          1.8209930446       -0.2268122106       -1.2652715398
 H          3.5105380891       -0.9871559258       -2.8932521266
 H          5.8152093379       -0.0917244868       -2.7941374959
 H          6.4253018684        1.5644811787       -1.0661001776
 H          4.6953275116        2.3100703496        0.5779783931
 H          3.0803388096        0.3536324922        2.5455930657
 H          3.7905729565       -1.8027965430        1.7696119720
 H          3.0878218299       -3.9947294017        0.8761843512
 H          0.7623267872       -4.3708203772        0.1887534204
 H         -1.9639342832       -2.7186049964        1.2161372575
 C         -1.5641835099       -3.7206288614       -0.6323990960
 C         -1.8566290005       -5.0938195117       -0.1072378370
 C         -2.9422031506       -4.2947586231       -0.7612488085
 H         -3.2876221766       -4.5920407801       -1.7399447630
 H         -3.7143515218       -3.8689190166       -0.1371597017
 H         -1.4590757840       -5.9449116411       -0.6393093926
 H         -1.8997605540       -5.2214935583        0.9638640666
 H         -0.9726609610       -3.6302986617       -1.5365971312
