  62
        -98.93901831
 C          2.6192177507        1.2290165996        0.4237104906
 C          3.0612727205        0.1202732195        1.1906358006
 C          4.2880116404       -0.5409585906        0.7358950208
 C          4.9292410207       -0.0751638007       -0.3511999991
 C          6.2128406707       -0.6133761409       -0.9230137089
 C          6.0277412107       -1.8194351009       -1.8537346989
 C          5.6591038804       -3.1287644008       -1.1551958590
 H          6.3672367202       -3.3214230709       -0.3486551889
 H          5.7761890404       -3.9282116508       -1.8894776490
 C          4.2262870003       -3.1707189706       -0.6055561092
 H          3.7584164502       -4.1197520505       -0.8773209393
 H          3.6329943905       -2.3793033805       -1.0697717593
 C          4.1246667600       -3.0359075906        0.9138967807
 H          4.5988197398       -3.8966850507        1.3909508808
 H          3.0659988300       -3.0406378405        1.1872128006
 C          4.7550582501       -1.7561801407        1.4785684909
 H          5.8422439301       -1.8270749409        1.4462569310
 H          4.4410991900       -1.6502822207        2.5199965208
 H          6.9708490907       -1.9687870210       -2.3843873188
 H          5.2638526508       -1.5750279407       -2.5953581090
 H          6.8909553405       -0.8796083210       -0.1116313488
 H          6.6606146709        0.1996251191       -1.4985318088
 O          4.4765381610        0.9893093194       -1.0612110191
 C          3.3048573010        1.6557888395       -0.7148338393
 O          3.0159406213        2.5846140696       -1.4895360994
 O          2.4611072902       -0.2863885704        2.2229437705
 C          1.3593470808        1.9249072498        0.9065396204
 C          0.1333840708        1.3343922100        0.2581182001
 C          0.0230906910        1.2331146900       -1.1255578299
 C         -1.1139457290        0.6925373402       -1.6971675201
 C         -2.1587605092        0.2410504003       -0.9086694102
 C         -2.0493235694        0.3151463603        0.4730333098
 C         -0.9074693394        0.8652405601        1.0449295800
 H         -0.8206841296        0.9127724701        2.1220119700
 N         -3.1017228796       -0.1247682096        1.2860540396
 S         -4.0094469797       -1.4684613294        0.8682387694
 O         -4.6065102500       -1.9084744393        2.1097145193
 O         -3.2250308897       -2.4458038495        0.1504439395
 C         -5.2821802495       -0.8027805192       -0.1851609508
 C         -5.5334331193       -1.3818361792       -1.4134809408
 C         -6.5357850491       -0.8529924090       -2.2119368310
 C         -7.2661631490        0.2392333011       -1.7698326611
 C         -7.0038883992        0.8072383810       -0.5319869310
 C         -6.0042051894        0.2826003309        0.2712673391
 H         -5.7729139395        0.6941077008        1.2394622492
 H         -7.5740665591        1.6564868611       -0.1914065911
 H         -8.0444199389        0.6499248612       -2.3935263412
 H         -6.7414513190       -1.2940523690       -3.1740652410
 H         -4.9371412194       -2.2268509392       -1.7198176507
 H         -2.9072801598       -0.0962887296        2.2758952196
 H         -3.0423283892       -0.1846319195       -1.3545364704
 H         -1.1904336988        0.6232006102       -2.7718174901
 H          0.8364180712        1.5839347699       -1.7429465297
 H          1.3087398506        1.6831296498        1.9805305503
 C          1.4229879110        3.4417632498        0.7913867404
 C          0.5905800213        4.2428548799       -0.1593806797
 C          0.2869176310        4.2758537000        1.3064147702
 H          0.5125714711        5.1706413699        1.8662993603
 H         -0.5963132191        3.7532494901        1.6423868401
 H          1.0509989915        5.1046717399       -0.6175024397
 H         -0.0919342987        3.7193840900       -0.8094854599
 H          2.4243166510        3.8157753296        0.9797875606
