  62
        -98.94515830
 C          1.5352067508        0.8085267008        0.0697109807
 C          2.8128283510        1.4095507337        0.1534809154
 C          3.9055346903        0.5262181521        0.5767393982
 C          3.6455773144       -0.7587741837        0.8802408407
 C          4.6494678640       -1.7762776163        1.3509838136
 C          5.4276443878       -2.4574359539        0.2168948570
 C          6.4740503332       -1.5806414937       -0.4720657124
 H          7.1271203073       -1.1367691882        0.2800097027
 H          7.0889724590       -2.2394753401       -1.0885179494
 C          5.8876643468       -0.4768229759       -1.3633515885
 H          4.8410270817       -0.7012349367       -1.5812371318
 H          6.4168000893       -0.4603610490       -2.3188819212
 C          5.9776136890        0.9300223167       -0.7720500645
 H          7.0260346445        1.2201789515       -0.6727695095
 H          5.5007852340        1.6251612087       -1.4678967268
 C          5.2962296949        1.0851804911        0.5939087979
 H          5.8922864547        0.6029934278        1.3685243578
 H          5.2231514198        2.1516699055        0.8212898609
 H          4.7147346066       -2.8242755900       -0.5249568188
 H          5.9368229070       -3.3237207714        0.6455750284
 H          5.3494272484       -1.3081203772        2.0436879320
 H          4.0863239182       -2.5412535242        1.8896919543
 O          2.3967368689       -1.2915071788        0.8116380422
 C          1.3133312144       -0.5312431929        0.3908059180
 O          0.2346453620       -1.1490675181        0.3538956059
 H         -2.3491703059        1.1725706822       -0.7233426411
 C         -2.0649069267        1.3258819902        0.3031865200
 C         -0.7482927136        1.5950603243        0.6398121397
 C         -0.4378973838        1.8325455802        1.9769320860
 C         -1.4162099286        1.7773054822        2.9496951156
 C         -2.7246080061        1.4745225178        2.6138008487
 C         -3.0477856618        1.2516929891        1.2815434902
 N         -4.3662988279        0.9647097103        0.9066065412
 S         -4.7001626414        0.0109803572       -0.4208783364
 O         -4.5137413098        0.7678174924       -1.6339353497
 O         -6.0480865100       -0.4610115603       -0.1818830002
 C         -3.5643607181       -1.3624292393       -0.3702353518
 C         -2.7950124072       -1.6488002901       -1.4781828801
 C         -1.9352831132       -2.7333432422       -1.4362406208
 C         -1.8576209189       -3.5072957512       -0.2906272952
 C         -2.6384321706       -3.2081195290        0.8139811895
 C         -3.5026332491       -2.1272069901        0.7766584614
 H         -4.1258153446       -1.8746307992        1.6194172479
 H         -2.5697915028       -3.8102463350        1.7058979755
 H         -1.1781839075       -4.3441800538       -0.2565144652
 H         -1.3208967793       -2.9645909113       -2.2921456988
 H         -2.8798727165       -1.0160968934       -2.3480524634
 H         -5.0073600251        0.8005223814        1.6679737877
 H         -3.4882771769        1.4171478621        3.3741734312
 H         -1.1584484587        1.9613224632        3.9818759888
 H          0.5865380830        2.0550242562        2.2432916846
 C          0.3535851163        1.6424814189       -0.3884265629
 H          0.7263370747        2.6758127421       -0.4524253149
 C         -0.0922616509        1.1965204874       -1.7653373054
 C         -0.7640253653        2.1611518069       -2.6947421998
 C          0.6358101512        1.7035499164       -2.9724117581
 H          0.8055779503        1.0263862208       -3.7960848242
 H          1.4438243484        2.4014298637       -2.8074825146
 H         -0.9067867172        3.1729422611       -2.3461104487
 H         -1.5646558891        1.8013983352       -3.3240955600
 H         -0.4208761652        0.1626327847       -1.7763011337
 O          3.0278302497        2.6251227891       -0.1031942184
