  62
        -98.94459263
 C         -2.0692022700       -0.9450997996       -0.0609513998
 C         -2.7526427200       -0.3874191593        1.0526603101
 C         -3.4257225699        0.8979932407        0.8347849898
 C         -3.3425105898        1.4829605404       -0.3736607503
 C         -4.0092041497        2.7729294404       -0.7523185305
 C         -5.4075140797        2.5283437104       -1.3368021105
 C         -6.2766176398        1.5993581707       -0.4891487903
 H         -7.2485622598        1.5249587706       -0.9814337503
 H         -5.8365964699        0.5995862206       -0.4926903001
 C         -6.4715578398        2.0613121210        0.9616767196
 H         -6.2209746697        3.1189398010        1.0505249394
 H         -7.5259999698        1.9545285211        1.2244445896
 C         -5.6721529798        1.2632140311        1.9932390898
 H         -5.8475269599        0.1947831811        1.8456078500
 H         -6.0457265898        1.5222803414        2.9873528097
 C         -4.1576772698        1.5066628910        1.9978733497
 H         -3.9567761597        2.5784075910        2.0580235395
 H         -3.7461805898        1.0295745311        2.8920642498
 H         -5.9058276596        3.4925620304       -1.4521827507
 H         -5.2947340597        2.0831729002       -2.3280776504
 H         -4.0772650396        3.4103465406        0.1273084393
 H         -3.3912350296        3.2705381102       -1.5019694506
 O         -2.6685178898        0.9308419901       -1.4122679502
 C         -2.0121980200       -0.2849610599       -1.2881782399
 O         -1.4402821700       -0.6426821502       -2.3391892998
 H          0.5240484500       -1.3195383402       -1.5344022197
 C          0.9310378399       -1.4894710900       -0.5484318696
 C          0.1097106599       -1.9894648397        0.4526584405
 C          0.6454482799       -2.1676993195        1.7228104405
 C          1.9678574599       -1.8518506896        1.9816604704
 C          2.7776573599       -1.3386823998        0.9839650503
 C          2.2474290700       -1.1480140601       -0.2848497597
 N          3.0556478400       -0.5691977303       -1.2936740598
 S          3.3481065102        1.0743552097       -1.0461737802
 O          2.2480546902        1.7070880199       -0.3512667403
 O          3.6834829002        1.6123900294       -2.3467209903
 C          4.8016690002        1.0821644198       -0.0180063502
 C          4.7222716902        1.5455555201        1.2805240397
 C          5.8639087302        1.5325638501        2.0668738397
 C          7.0573182402        1.0587689399        1.5433872098
 C          7.1206227901        0.5990935696        0.2361604299
 C          5.9833045101        0.6097490496       -0.5554640601
 H          5.9871567301        0.2679946293       -1.5769706000
 H          8.0506468201        0.2324772495       -0.1673083100
 H          7.9435109102        1.0486542300        2.1581085098
 H          5.8161223002        1.8897676103        3.0830097897
 H          3.7706241802        1.8990234902        1.6442498397
 H          2.6489986900       -0.6802430005       -2.2135977698
 H          3.8058344800       -1.0811509599        1.1794193203
 H          2.3698041299       -1.9981441594        2.9724804105
 H          0.0086685898       -2.5353546093        2.5142510706
 C         -1.3496712401       -2.2640470096        0.1791646605
 H         -1.7919385102       -2.6685223794        1.0994250506
 C         -1.5369124002       -3.2790335899       -0.9297956693
 C         -1.2803224503       -4.7258786298       -0.6357763890
 C         -2.6816794303       -4.2425992797       -0.8550722191
 H         -3.1863510103       -4.5127920399       -1.7704783590
 H         -3.3376438403       -4.1741395095        0.0004969109
 H         -0.9861214004       -4.9859238196        0.3696659911
 H         -0.8195436704       -5.3320564300       -1.4003765288
 H         -1.2669565902       -2.9073781401       -1.9094876094
 O         -2.7977598900       -0.9471167991        2.1803100302
