  62
        -98.94442301
 C          1.8329837688        0.0321522303       -0.4347359574
 C          2.9847236526       -0.3342233090       -1.1714771526
 C          4.2670197307        0.1474318251       -0.6417977649
 C          4.2750383044        0.9077002554        0.4685141613
 C          5.5125125362        1.4195548931        1.1462014032
 C          6.0044260597        0.4372522362        2.2184881831
 C          6.1067327907       -1.0083029034        1.7316727788
 H          6.4916465354       -1.6042145965        2.5620887028
 H          5.1043139559       -1.3800510193        1.5072853789
 C          7.0059876749       -1.2024169664        0.5027749608
 H          7.6610060273       -0.3387179165        0.3830542584
 H          7.6442981065       -2.0724940576        0.6702870388
 C          6.2495979277       -1.4498990822       -0.8036843785
 H          6.9691838013       -1.7872745869       -1.5543458018
 H          5.5247158606       -2.2550166609       -0.6599900806
 C          5.5134697403       -0.2377289521       -1.3881330209
 H          5.1875181337       -0.5024489062       -2.3982733750
 H          6.1982874690        0.6096585878       -1.4591935487
 H          6.9801945901        0.7739623936        2.5734220704
 H          5.3079647377        0.4668211077        3.0597745642
 H          5.2749409345        2.3729983332        1.6210600990
 H          6.2894444565        1.5794002025        0.4011055192
 O          3.1458249793        1.2609563842        1.1349562347
 C          1.8978277375        0.8261902646        0.7099670397
 O          0.9505614988        1.2119015756        1.4210228353
 O          2.9407629345       -1.0263557354       -2.2239514858
 C          0.4762475676       -0.4541566534       -0.9104286108
 C         -0.4531269944        0.7103732639       -1.1423725367
 C         -0.0034976623        1.7862942361       -1.9042363320
 C         -0.8189799613        2.8753146489       -2.1389849961
 C         -2.1017623122        2.9147181550       -1.6213191146
 C         -2.5670838084        1.8405605567       -0.8728773596
 C         -1.7478135005        0.7418708391       -0.6478209305
 H         -2.1246429988       -0.0749445157       -0.0559102070
 N         -3.8804264471        1.8361054240       -0.3882637512
 S         -4.3316653068        1.0181414281        0.9950512900
 O         -5.6301820484        1.5734109677        1.3177472282
 O         -3.3376640580        1.0938086146        2.0389050468
 C         -4.5512770594       -0.6680169899        0.4656961553
 C         -5.1243791518       -0.9174985473       -0.7656570091
 C         -5.3346816814       -2.2316323309       -1.1516140768
 C         -4.9800778011       -3.2686860213       -0.3023476069
 C         -4.4110515988       -3.0015880175        0.9332927864
 C         -4.1929366116       -1.6890438206        1.3231434310
 H         -3.7405289092       -1.4358702290        2.2692875553
 H         -4.1362032563       -3.8086034298        1.5941732553
 H         -5.1455912951       -4.2907780568       -0.6041997462
 H         -5.7752198966       -2.4433509744       -2.1124622207
 H         -5.3893521493       -0.0881594112       -1.3995910981
 H         -4.3889994372        2.6997375039       -0.5044699056
 H         -2.7373583718        3.7696667930       -1.7946261964
 H         -0.4528370528        3.7051597595       -2.7247273582
 H          1.0020372404        1.7596907141       -2.3018414058
 H          0.6671128753       -0.9380058947       -1.8804313369
 C         -0.0768856766       -1.4904616906        0.0451478103
 C         -0.9698506482       -2.5809407679       -0.4646232459
 C          0.4325482066       -2.8969729205       -0.0420871299
 H          0.5864723625       -3.4468299547        0.8742833172
 H          1.1642126355       -3.1102651951       -0.8076975443
 H         -1.7840644450       -2.9151439080        0.1601271584
 H         -1.1938418192       -2.5871964049       -1.5204220885
 H         -0.2688157013       -1.0860382035        1.0337931021
