  62
        -98.94072759
 C         -2.6422174564       -0.1177060765       -0.1744485103
 C         -2.5394626013       -1.3159627800       -0.9249024579
 C         -1.9523764261       -2.4677488778       -0.2346194770
 C         -1.5502052571       -2.3428451648        1.0428880322
 C         -0.8878832138       -3.4099802940        1.8703827329
 C          0.6281651822       -3.4892223378        1.6390399436
 C          1.0474526137       -4.1391672108        0.3190472800
 H          2.1143329843       -4.3588054318        0.3957640419
 H          0.5260277565       -5.0898144814        0.1988526477
 C          0.8129412440       -3.2574871983       -0.9158665577
 H          0.6879356939       -2.2199868742       -0.5941479789
 H          1.6955948550       -3.2918310802       -1.5601456478
 C         -0.3824100584       -3.6703276522       -1.7759135055
 H         -0.1945407700       -4.6534782281       -2.2139047340
 H         -0.4812900446       -2.9508754858       -2.5931047258
 C         -1.7208537093       -3.7191803260       -1.0277110404
 H         -2.5222714695       -3.7979877441       -1.7667411691
 H         -1.7571614856       -4.5921724992       -0.3766898324
 H          1.0566112783       -4.0679376242        2.4609197596
 H          1.0361481962       -2.4759193636        1.6906012763
 H         -1.3456939056       -4.3789028170        1.6681192841
 H         -1.0649196159       -3.1496409373        2.9161115643
 O         -1.7081287774       -1.1931080108        1.7465330352
 C         -2.1821559884       -0.0376958572        1.1434523110
 O         -2.1631096706        0.9602656438        1.8886640742
 O         -2.8971215976       -1.4089296135       -2.1312042324
 C         -3.0450054634        1.1444038115       -0.9243313149
 C         -1.9304928428        2.1414317659       -0.7282143419
 C         -2.0796820016        3.4031233562       -0.1710460174
 C         -0.9686180707        4.1867953181        0.0964834165
 C          0.3089856767        3.7253919192       -0.1656029691
 C          0.4625520184        2.4757355608       -0.7471988780
 C         -0.6482081833        1.7104212332       -1.0475577809
 H         -0.5153147042        0.7248206135       -1.4796542531
 N          1.7728089921        1.9429549791       -0.9423078569
 S          2.1948364241        1.0551753529        0.4448839661
 O          1.3581825172       -0.1193104794        0.5643250332
 O          2.2032745744        1.9648465385        1.5616201842
 C          3.8645014627        0.5678364139        0.0497759123
 C          4.8459170700        1.5403697271        0.0495427937
 C          6.1419657987        1.1826862543       -0.2849606802
 C          6.4327831856       -0.1336683613       -0.6125119705
 C          5.4368949754       -1.0981538648       -0.6074165079
 C          4.1376061781       -0.7463711396       -0.2753142933
 H          3.3314532421       -1.4626786288       -0.2537711489
 H          5.6650085889       -2.1209883036       -0.8606216761
 H          7.4424874303       -0.4100861452       -0.8721293348
 H          6.9196397625        1.9292303293       -0.2892529292
 H          4.5721762964        2.5469901791        0.3179570691
 H          1.7723847651        1.2823896590       -1.7116485140
 H          1.1823018779        4.3010174302        0.0934336034
 H         -1.1003606227        5.1591125046        0.5465852287
 H         -3.0628511804        3.7567662809        0.0943589031
 H         -3.0477309153        0.8351741685       -1.9837309329
 C         -4.4334065758        1.6866162653       -0.6355480235
 C         -5.5279130248        0.7757534524       -0.1672700661
 C         -4.9846025827        1.8276607989        0.7502535470
 H         -5.6048231008        2.6858709291        0.9650353575
 H         -4.3557731915        1.5250373551        1.5719244150
 H         -6.5182743334        0.9068376691       -0.5766456127
 H         -5.2660553546       -0.2541635511        0.0287425050
 H         -4.7204411090        2.4526928419       -1.3498134611
