  62
        -98.94575599
 C          2.3522666980        0.8891837867        0.2837219872
 C          2.1437342630        0.0152512763       -0.8108137965
 C          2.5424015807       -1.3836067712       -0.5960609732
 C          3.0336747518       -1.7541486192        0.6004320868
 C          3.4118186730       -3.1574501664        0.9745252593
 C          2.2226289409       -3.9087538453        1.5899994617
 C          0.9351696762       -3.8110165935        0.7706250291
 H          0.1797061120       -4.4079394469        1.2861222171
 H          0.5847983773       -2.7759915601        0.7741513298
 C          1.0707386720       -4.2923794836       -0.6805344540
 H          1.9666400096       -4.9055042181       -0.7842421602
 H          0.2162127859       -4.9269475741       -0.9225289406
 C          1.1020482783       -3.1682598344       -1.7171748875
 H          0.9794927612       -3.6149016140       -2.7070764518
 H          0.2592925862       -2.4925473141       -1.5526127231
 C          2.3859553319       -2.3309114208       -1.7522491250
 H          3.2549396825       -2.9876373174       -1.8299138728
 H          2.3467994991       -1.7037117848       -2.6475082917
 H          2.0297260639       -3.4965876918        2.5834054954
 H          2.5022363631       -4.9573562000        1.7073979630
 H          3.7666336243       -3.6807516966        0.0887929235
 H          4.2198150296       -3.1127783962        1.7067823665
 O          3.1931543715       -0.8904663822        1.6368200162
 C          2.8591465016        0.4476580650        1.5051940942
 O          3.0473058235        1.1292277761        2.5345753538
 H          0.0418855693        1.2796032731        1.5843499530
 C         -0.3651277317        1.8534956202        0.7601933264
 C          0.5105208136        2.4988486120       -0.1052989069
 C         -0.0196023881        3.2371404784       -1.1541250436
 C         -1.3910412947        3.3203763368       -1.3267918640
 C         -2.2591077223        2.6830249751       -0.4600429092
 C         -1.7394460337        1.9402573625        0.5938359340
 N         -2.5982615535        1.3111338622        1.5105820665
 S         -3.9450405896        0.4550136457        1.0186100794
 O         -4.8808197430        1.3552400045        0.3937060949
 O         -4.4035309812       -0.2211377509        2.2102982334
 C         -3.3702297905       -0.7441127795       -0.1683715202
 C         -3.3187194686       -0.4138618818       -1.5076572711
 C         -2.8549409204       -1.3567970009       -2.4113091578
 C         -2.4584446936       -2.6074103319       -1.9641423039
 C         -2.5151536819       -2.9232307896       -0.6149900390
 C         -2.9689736459       -1.9821810110        0.2939398618
 H         -3.0380377548       -2.1905499495        1.3496828925
 H         -2.2048870666       -3.8960061682       -0.2695439916
 H         -2.1041864934       -3.3410156247       -2.6709495145
 H         -2.8045824833       -1.1122972137       -3.4600476043
 H         -3.6492759998        0.5618336935       -1.8223877195
 H         -2.1168106211        0.8182778147        2.2477559483
 H         -3.3282245259        2.7560042695       -0.5757876909
 H         -1.7907908132        3.8971527963       -2.1470275817
 H          0.6386501951        3.7450656530       -1.8390172671
 C          1.9907115415        2.3588539215        0.1583760373
 H          2.2000874245        2.8075246614        1.1406324086
 C          2.8646248041        3.0316319874       -0.8787229003
 C          3.1436618078        4.5007628265       -0.7862696410
 C          4.2252260527        3.5113229283       -0.4752091231
 H          5.0404091409        3.3988909237       -1.1741381863
 H          4.5145118195        3.3736450508        0.5568450502
 H          3.2202255111        5.0708006535       -1.6998112897
 H          2.7015692751        5.0430120424        0.0359752111
 H          2.7631748631        2.5886840940       -1.8624057083
 O          1.6533895256        0.3802433684       -1.9098516789
