  62
        -98.93719837
 C          2.2973326507        0.2896196614       -0.3871323381
 C          3.4953856608        0.5506281350       -1.1003158665
 C          4.7232460307        0.6377271608       -0.2999456258
 C          4.6433917105        0.5139896338        1.0372452535
 C          5.8192957303        0.5207187389        1.9695574737
 C          6.3552195302       -0.8998462823        2.1971984065
 C          6.5789855403       -1.6912632756        0.9084623124
 H          6.9841340302       -2.6652333771        1.1913961374
 H          5.6139757004       -1.8731295431        0.4294851213
 C          7.5238400006       -1.0166268105       -0.0958849040
 H          8.2210999006       -1.7652029185       -0.4778634377
 H          8.1144068605       -0.2508095731        0.4081412701
 C          6.8245853008       -0.3997035641       -1.3086141109
 H          6.1604101208       -1.1386615217       -1.7644136248
 H          7.5877138309       -0.1462690203       -2.0492338494
 C          6.0135573908        0.8727517945       -1.0336391144
 H          6.6335323808        1.5963112617       -0.5005963805
 H          5.7336389610        1.3039117995       -1.9993178422
 H          5.6370768400       -1.4459712454        2.8132446535
 H          7.2935456801       -0.8298884452        2.7503198470
 H          5.4975609002        0.9360554840        2.9259239658
 H          6.6015544604        1.1528946110        1.5538297372
 O          3.4706245303        0.3236580505        1.6922697223
 C          2.2679474004        0.2043403341        1.0055091615
 O          1.2815797603        0.0378357503        1.7462869005
 O          3.5332765410        0.7095813415       -2.3499066957
 C          1.0175277008        0.1709777856       -1.1930113589
 C         -0.0842979192        0.9983732425       -0.5810676848
 C          0.1166962108        2.3685311117       -0.4264094176
 C         -0.8684766192        3.1722482190        0.1114821864
 C         -2.0885804493        2.6333135371        0.4815785434
 C         -2.2985069294        1.2686278579        0.3332646362
 C         -1.2972214793        0.4593354105       -0.1865195078
 H         -1.4854671494       -0.5983372090       -0.2671240433
 N         -3.5179218295        0.6819668960        0.7066666330
 S         -4.1147163294       -0.5718053589       -0.2535734636
 O         -3.6049013396       -1.8271042515        0.2382788600
 O         -3.8665339091       -0.2859068917       -1.6487903721
 C         -5.8607537194       -0.4527576106        0.0936721267
 C         -6.3694989597       -1.0906131364        1.2092383533
 C         -7.7212703697       -0.9705894578        1.4907120937
 C         -8.5369116395       -0.2187058834        0.6581274475
 C         -8.0123281993        0.4146546624       -0.4585744691
 C         -6.6613508193        0.2995227138       -0.7454749095
 H         -6.2114286691        0.7651460582       -1.6075962270
 H         -8.6493504192        0.9954828458       -1.1059529362
 H         -9.5886830996       -0.1283249645        0.8791612378
 H         -8.1333117899       -1.4640284023        2.3561050211
 H         -5.6991254498       -1.6711250796        1.8215458904
 H         -4.2317618795        1.3598689849        0.9349149864
 H         -2.8646840194        3.2618135950        0.8914763665
 H         -0.6923222492        4.2307574883        0.2318113019
 H          1.0649345909        2.7925143232       -0.7294960353
 H          1.2681013310        0.6234198307       -2.1684593865
 C          0.5957093508       -1.2619347528       -1.4818340064
 C          1.6013985207       -2.3706050725       -1.5529249720
 C          0.6108193305       -2.3288092383       -0.4301242819
 H         -0.1963269395       -3.0475370183       -0.4222688558
 H          0.9544701104       -2.0533259734        0.5546101896
 H          1.4839275108       -3.1223403186       -2.3188506059
 H          2.6305742907       -2.1259031737       -1.3329640105
 H         -0.2187150491       -1.3057872691       -2.2003044268
