  62
        -98.93978254
 C          1.7463437469        1.3208143200        0.4747804761
 C          1.5496775647        0.2467666496       -0.4295003103
 C          2.7661785620       -0.2866509340       -1.0667171041
 C          3.9625307008        0.2515678438       -0.7728888822
 C          5.2790181240       -0.2309653192       -1.3074850669
 C          5.9020579489       -1.2817396861       -0.3779704664
 C          4.9386044680       -2.3978086395        0.0265883471
 H          5.4954959132       -3.0967521365        0.6544727785
 H          4.1415328997       -1.9774428729        0.6445772802
 C          4.3148579504       -3.1567814694       -1.1530037404
 H          4.9018486710       -2.9854921428       -2.0561689784
 H          4.3526324613       -4.2272198272       -0.9400335480
 C          2.8501426795       -2.8106472999       -1.4284470264
 H          2.2703131528       -2.8950184457       -0.5050703232
 H          2.4517236518       -3.5503813420       -2.1283980388
 C          2.5928184984       -1.4246587446       -2.0328881560
 H          3.2234449486       -1.2841638875       -2.9133764653
 H          1.5460257657       -1.3954356831       -2.3498624194
 H          6.7713013823       -1.7131291198       -0.8775962430
 H          6.2456452969       -0.7810139073        0.5301521993
 H          5.1308239999       -0.6509890136       -2.3003378935
 H          5.9548502547        0.6228009546       -1.3803153219
 O          4.1129158304        1.2801533633        0.0996349026
 C          3.0211853956        1.8200863391        0.7586523320
 O          3.3115800265        2.7284475480        1.5625563157
 H         -1.8947592605        0.9328217457        0.6053730070
 C         -1.4664835096        0.4776258224        1.4831075814
 C         -0.2121143493        0.8686178729        1.9268055945
 C          0.3283277660        0.2433976885        3.0474205896
 C         -0.3739187175       -0.7379769046        3.7192439215
 C         -1.6279185302       -1.1202553297        3.2771804029
 C         -2.1702868438       -0.5169976223        2.1497976749
 N         -3.4508410988       -0.8844535484        1.6851731184
 S         -3.5462492533       -1.6365455025        0.1786589889
 O         -4.8021776342       -2.3600887884        0.2285470211
 O         -2.3739835146       -2.4371925354       -0.0841818145
 C         -3.7104372609       -0.3128008472       -0.9967707794
 C         -4.9297305070        0.3333246713       -1.0672904406
 C         -5.0996211023        1.3425230058       -2.0004652284
 C         -4.0553541728        1.6777731712       -2.8497517659
 C         -2.8389347590        1.0183340785       -2.7645437621
 C         -2.6566403779        0.0137056565       -1.8256491703
 H         -1.7149544441       -0.4989931413       -1.7079989435
 H         -2.0254395506        1.2821998299       -3.4218418671
 H         -4.1884543662        2.4584881321       -3.5823944448
 H         -6.0428963891        1.8603344870       -2.0673792416
 H         -5.7187633999        0.0250064322       -0.4017237730
 H         -3.9628658743       -1.4496828550        2.3497009196
 H         -2.1826393594       -1.8881655020        3.7964619657
 H          0.0562198344       -1.2099031582        4.5900159776
 H          1.3116866969        0.5414239268        3.3864613695
 C          0.5981092114        1.9463954581        1.2503956130
 H          1.0885687422        2.5329381633        2.0445130419
 C         -0.2512219491        2.9293480920        0.4596232842
 C          0.4044102959        3.9138420397       -0.4621772135
 C         -0.4709973573        2.8330840256       -1.0177625190
 H         -1.4423084998        3.1072659619       -1.4023827358
 H         -0.0078085381        2.0150328994       -1.5447031314
 H          0.0428358098        4.9308310369       -0.4735483104
 H          1.4731276304        3.8278794742       -0.5972849920
 H         -1.0821130362        3.3027412730        1.0504880941
 O          0.4281964900       -0.2462713751       -0.7100821216
