  62
        -98.93042219
 C         -2.2177432744       -0.7525456156       -0.3633595429
 C         -3.5592293066       -1.1500001107       -0.1264107563
 C         -4.4571256543       -0.1305858906        0.4309295913
 C         -3.9686320018        1.0827825705        0.7421830250
 C         -4.7227302612        2.2233930813        1.3733415821
 C         -5.8621744138        2.8347508807        0.5350635659
 C         -7.2479726770        2.2443337798        0.8242360040
 H         -7.2476168279        1.8246771908        1.8309805864
 H         -7.9811738306        3.0534429555        0.8226686718
 C         -7.7448875078        1.1896450422       -0.1692103039
 H         -8.0968716810        1.6898841841       -1.0743023118
 H         -8.6018248971        0.6839683385        0.2809457922
 C         -6.7190112666        0.1397409816       -0.5962422327
 H         -6.0152531790        0.5822691145       -1.3054274031
 H         -7.2441821095       -0.6509367889       -1.1357849067
 C         -5.9114058194       -0.4785198473        0.5615159734
 H         -6.3001503341       -0.1466499093        1.5231078943
 H         -5.9757585166       -1.5677778162        0.5214904398
 H         -5.8902850178        3.8997010310        0.7710735382
 H         -5.6227310756        2.7455418942       -0.5242604346
 H         -5.1192179388        1.8900417462        2.3352336130
 H         -3.9728358401        2.9921352660        1.5713560818
 O         -2.6625753162        1.4098637427        0.5500330760
 C         -1.7570141847        0.5182541042       -0.0140800889
 O         -0.6109564517        0.9887166044       -0.1393116668
 H          1.2281031384       -0.7934331713       -1.4134553657
 C          1.1641043192       -1.3175390061       -0.4726991899
 C         -0.0372540264       -1.8897401799       -0.0892636640
 C         -0.1101723322       -2.5257464869        1.1466977049
 C          0.9950435178       -2.5879478733        1.9736379807
 C          2.1948023354       -2.0159339555        1.5875204068
 C          2.2739637386       -1.3692902543        0.3620871373
 N          3.4881378538       -0.7911835756       -0.0541545155
 S          4.4476948634       -0.0199967344        1.1002473749
 O          5.1628316849       -1.0297325383        1.8422102726
 O          3.6637630967        0.9025916376        1.8905972104
 C          5.5811149835        0.8621542825        0.0456166874
 C          6.7134960128        0.2136993824       -0.4093202761
 C          7.5794237730        0.8911322612       -1.2529273013
 C          7.2998936844        2.1974790793       -1.6257022105
 C          6.1597323263        2.8353704045       -1.1601835382
 C          5.2884711549        2.1630818182       -0.3174477020
 H          4.3939771992        2.6217171355        0.0739880819
 H          5.9455696587        3.8516734827       -1.4496377435
 H          7.9755843250        2.7237657520       -2.2812985186
 H          8.4677879219        0.3998465228       -1.6157109083
 H          6.8925028505       -0.7980585434       -0.0852331506
 H          3.3558694186       -0.1931366269       -0.8587961537
 H          3.0609289185       -2.0463484149        2.2286764467
 H          0.9245069969       -3.0821029247        2.9312987585
 H         -1.0507748527       -2.9603663221        1.4570125182
 C         -1.2779473088       -1.7981380288       -0.9392577094
 H         -1.8322209191       -2.7446969341       -0.8315296910
 C         -0.9794682422       -1.6419225041       -2.4226093384
 C         -2.0482685048       -1.1812212097       -3.3670291865
 C         -0.8565813914       -0.3128845213       -3.1032198732
 H         -0.1186313703       -0.2095213661       -3.8857230779
 H         -0.9856530730        0.5759842806       -2.5062079881
 H         -2.9962147499       -0.8907247933       -2.9378170340
 H         -2.1330284244       -1.6655286268       -4.3280381680
 H         -0.3254503589       -2.4310274651       -2.7815578880
 O         -3.9867785375       -2.3110396947       -0.3633547009
