  62
        -98.92951910
 C          2.5011028738        0.2946757190       -0.6209373895
 C          2.0054516644        0.7402855332        0.6259867521
 C          1.3314567184        2.0549224494        0.6425538882
 C          1.2676109094        2.7678602353       -0.4967063081
 C          0.6391178056        4.1169899816       -0.7368580386
 C         -0.8907698179        4.0590408288       -0.8230356775
 C         -1.5622247362        3.2998264615        0.3170957994
 H         -2.6403249582        3.3143786982        0.1318556783
 H         -1.2513703641        2.2537419149        0.2862582679
 C         -1.3190039842        3.8700778187        1.7134343931
 H         -1.6093359527        4.9231117717        1.7270022814
 H         -1.9821311244        3.3305353650        2.3938192314
 C          0.1078807343        3.7423434092        2.2579206502
 H          0.0529257870        3.8650447756        3.3433465546
 H          0.7514955299        4.5380092978        1.8901053189
 C          0.7609602212        2.3887541086        1.9985198776
 H          1.5880905964        2.2499352512        2.7045450396
 H          0.0468998111        1.5875898165        2.2254362875
 H         -1.2702042920        5.0826265154       -0.8573588459
 H         -1.1621168923        3.5619466958       -1.7580527668
 H          0.9508153807        4.8207703953        0.0293165517
 H          1.0276318421        4.4711066861       -1.6948449837
 O          1.8044478967        2.3137906065       -1.6688854886
 C          2.3861059538        1.0673887349       -1.7724721105
 O          2.7741278438        0.7674542493       -2.9229705493
 H          0.5662240132       -1.1429105507       -1.1665766461
 C          0.8329333478       -1.9168604092       -0.4612716886
 C          2.1698160214       -2.0789955412       -0.1013742469
 C          2.4708409080       -3.1036212121        0.7861323102
 C          1.4651991825       -3.8950212019        1.3194717218
 C          0.1376284317       -3.6764875626        1.0093365592
 C         -0.1785548504       -2.6668028602        0.1081686346
 N         -1.5161664891       -2.3808709475       -0.2430883703
 S         -1.9348841226       -0.7383125151       -0.1747518374
 O         -1.4715162245       -0.0808051179       -1.3712039101
 O         -1.5086018331       -0.1750784014        1.0852181691
 C         -3.7139568662       -0.8588580318       -0.2210515317
 C         -4.4497001678       -0.6224685443        0.9240888663
 C         -5.8296092506       -0.7462459920        0.8718810645
 C         -6.4456564259       -1.1061399155       -0.3169604292
 C         -5.6933654478       -1.3398376038       -1.4589287787
 C         -4.3140899338       -1.2150085533       -1.4140544739
 H         -3.6887348528       -1.3763942717       -2.2766166245
 H         -6.1757427055       -1.6173426753       -2.3822510821
 H         -7.5191201746       -1.2029592417       -0.3552728890
 H         -6.4167047804       -0.5614951671        1.7569379515
 H         -3.9258880162       -0.3412146386        1.8235191243
 H         -2.1690697379       -2.9168722912        0.3155469263
 H         -0.6433405559       -4.2707408905        1.4594212658
 H          1.7261169075       -4.6806176197        2.0127385883
 H          3.4811103278       -3.2937005351        1.0989164262
 C          3.1148959500       -1.0953251349       -0.7551112354
 H          3.0992637679       -1.3142468338       -1.8374846174
 C          4.5832527912       -1.0000218237       -0.3670078838
 C          5.1291324371       -1.2021173772        1.0108167667
 C          5.5008115831       -2.1533466107       -0.0892773118
 H          6.5037485349       -2.0923368586       -0.4859611452
 H          5.1005415020       -3.1533851253       -0.0914974987
 H          5.8792404463       -0.5073769426        1.3602278658
 H          4.4404992740       -1.5078794899        1.7813619192
 H          5.0296616134       -0.1838472059       -0.9325620932
 O          2.1123738616        0.0732854424        1.6876591944
