  62
        -98.93909715
 C         -2.4722859051       -1.0388334268        0.3851555741
 C         -2.6366873015        0.1438031060        1.1534192637
 C         -3.8689789049        0.9082037254        0.9244228213
 C         -4.7688572193        0.4488728064        0.0361387792
 C         -6.0412414109        1.1501509949       -0.3397705362
 C         -5.8274629588        2.0815072961       -1.5412354820
 C         -4.6168235410        3.0042335189       -1.3998273604
 H         -3.7057689547        2.4009827938       -1.3991185739
 H         -4.5829123023        3.6352295492       -2.2905780683
 C         -4.6371611081        3.8903874966       -0.1464671655
 H         -4.3534337105        4.9058617673       -0.4306202625
 H         -5.6488544447        3.9375643086        0.2579641715
 C         -3.6722529878        3.4516164565        0.9568176432
 H         -3.6072044643        4.2575830733        1.6927970938
 H         -2.6723064902        3.3115025621        0.5375378078
 C         -4.0595150227        2.1738085876        1.7119638783
 H         -3.3997084812        2.0882410008        2.5804791145
 H         -5.0884243663        2.2542636090        2.0687032105
 H         -5.6869478653        1.4679029619       -2.4339344231
 H         -6.7295494938        2.6804918371       -1.6782420965
 H         -6.7842567401        0.3958053994       -0.6034270717
 H         -6.4017698214        1.7188278836        0.5151232218
 O         -4.5927741330       -0.7000321404       -0.6605366921
 C         -3.4443763568       -1.4670008504       -0.5198357393
 O         -3.4384673141       -2.4822202353       -1.2419423689
 H          1.0437795124       -0.3073575362        0.6923829625
 C          0.9035032465       -0.7584509670       -0.2797358212
 C         -0.2031080591       -1.5611525925       -0.5193463232
 C         -0.3708100651       -2.1096972765       -1.7870735936
 C          0.5577650969       -1.8650611627       -2.7819573188
 C          1.6752316064       -1.0885249871       -2.5314719120
 C          1.8448550209       -0.5243593363       -1.2725033005
 N          2.9542670209        0.2907858560       -0.9962385188
 S          3.6335761754        0.2215492258        0.5484517209
 O          3.6903965795       -1.1502536779        1.0009478832
 O          2.9413399229        1.1507608073        1.4053918433
 C          5.2763448885        0.8267519861        0.2083874301
 C          5.4873867667        2.1919021492        0.1624802058
 C          6.7571751736        2.6636223197       -0.1302355006
 C          7.7885359403        1.7679767071       -0.3713764646
 C          7.5618946815        0.4007478985       -0.3201860911
 C          6.2941562027       -0.0778692220       -0.0287835784
 H          6.0732527490       -1.1314458063        0.0317959850
 H          8.3664033192       -0.2928122492       -0.5046003125
 H          8.7759644948        2.1381856367       -0.5975312154
 H          6.9378514005        3.7257739935       -0.1677331741
 H          4.6572990940        2.8481477855        0.3667525746
 H          3.6592149105        0.2538768143       -1.7199376183
 H          2.4060554018       -0.9121054342       -3.3061450321
 H          0.4158794506       -2.2954969640       -3.7618511376
 H         -1.2434782735       -2.7106517518       -1.9883976177
 C         -1.1866613611       -1.8205708563        0.5975018896
 H         -0.7506159136       -1.4065300982        1.5176334079
 C         -1.4077710573       -3.3064348499        0.8028349992
 C         -0.3023568706       -4.1196315206        1.4045165144
 C         -1.5447620053       -3.8410428767        2.1950829016
 H         -2.2379349390       -4.6501285954        2.3699074396
 H         -1.4825573963       -3.1347747036        3.0104830351
 H         -0.1408876118       -5.1213217689        1.0369582197
 H          0.6046207178       -3.6007721382        1.6798514745
 H         -2.0123565984       -3.7666328678        0.0325929283
 O         -1.7912252015        0.5389887580        2.0019982624
