  62
        -98.94021507
 C          2.2193499122        0.9165735002        0.3941551039
 C          1.0513269102        1.1668966953        1.1520261515
 C          0.2666568511        2.3500646424        0.7682159913
 C          0.6564217225        3.0911229956       -0.2829657572
 C         -0.1379488964        4.2050472770       -0.9019628579
 C         -1.2646191404        3.6010154947       -1.7668475716
 C         -2.6780366316        3.9054147100       -1.2692407079
 H         -2.9243782798        4.9426284138       -1.5081060734
 H         -3.3608068710        3.2637284377       -1.8309051279
 C         -2.9175791831        3.6958715634        0.2291441067
 H         -2.5435925724        4.5582985052        0.7836057746
 H         -3.9991757207        3.6728983278        0.3781473658
 C         -2.3108364991        2.4220045704        0.8311414663
 H         -2.1740314034        1.6605171037        0.0616556678
 H         -3.0185367722        2.0170055281        1.5580760673
 C         -0.9739279825        2.6418405709        1.5663861513
 H         -0.9284263294        3.6642440061        1.9510544565
 H         -0.9297627463        1.9633780671        2.4229177394
 H         -1.1755038713        3.9693229223       -2.7905977433
 H         -1.1222228816        2.5177621477       -1.8111611901
 H         -0.5506295374        4.8460011121       -0.1260451594
 H          0.5424476774        4.7927240838       -1.5187524128
 O          1.7959632503        2.8382783942       -0.9766503921
 C          2.5863871327        1.7460349561       -0.6693577771
 O          3.5902916790        1.6211311184       -1.4016815576
 H          0.5280326005       -1.1447064405        0.3230901775
 C          1.1801979346       -1.6801264320       -0.3436722341
 C          2.5422184685       -1.4173974833       -0.3309919764
 C          3.3683500368       -2.1414150738       -1.1810744223
 C          2.8337886774       -3.0845292931       -2.0416245495
 C          1.4674673161       -3.2907628967       -2.0996381268
 C          0.6320792867       -2.5726395984       -1.2500651921
 N         -0.7612205731       -2.7306534333       -1.2999159390
 S         -1.7965944597       -1.4002553438       -1.2604481481
 O         -2.7250350537       -1.6193681290       -2.3531616849
 O         -1.0689947597       -0.1556940544       -1.2910730210
 C         -2.6842054044       -1.6195948867        0.2696134457
 C         -2.2018956981       -1.0986556357        1.4527658540
 C         -2.9190436355       -1.3164863532        2.6198705927
 C         -4.0952655986       -2.0482782447        2.5890172199
 C         -4.5664016255       -2.5667174533        1.3921279576
 C         -3.8561093246       -2.3519875409        0.2230300702
 H         -4.1916965768       -2.7244504127       -0.7307624152
 H         -5.4822652164       -3.1349217709        1.3667914439
 H         -4.6467738594       -2.2130325730        3.5012645942
 H         -2.5453053783       -0.9104584719        3.5464697231
 H         -1.2864412118       -0.5283788792        1.4682457264
 H         -1.0726188536       -3.3824928348       -2.0058288746
 H          1.0468015520       -3.9942733817       -2.8025386628
 H          3.4848289976       -3.6430742385       -2.6971281204
 H          4.4303743124       -1.9455128318       -1.1836907280
 C          3.0883869676       -0.3221853821        0.5578664640
 H          4.0813120940       -0.0488378854        0.1737717484
 C          3.2444395836       -0.8063913640        1.9847681460
 C          4.4608576674       -1.5988845853        2.3547523052
 C          4.2985735297       -0.1959716713        2.8562862504
 H          4.0739992521       -0.0393618560        3.9003274589
 H          4.9184900557        0.5758460862        2.4231465315
 H          4.3500662799       -2.4116965290        3.0557094540
 H          5.1974315682       -1.7782447504        1.5862943511
 H          2.3068255634       -1.0732775557        2.4529179548
 O          0.6443595394        0.4398500814        2.0993124891
