  62
        -98.94460064
 C         -1.0827288373       -1.3615691179        0.3346557741
 C         -1.3836111868       -0.4875931238       -0.7383644862
 C         -2.3428013152        0.5905561441       -0.4370770626
 C         -2.8461535391        0.7084607569        0.8042703090
 C         -3.8611799291        1.7293283362        1.2302510062
 C         -5.2899035208        1.1944302815        1.0599899463
 C         -5.5588811144        0.5767959412       -0.3121779241
 H         -4.9529420165       -0.3253270280       -0.4233576096
 H         -6.6052492109        0.2645684750       -0.3291516317
 C         -5.2871502244        1.5163118735       -1.4954485423
 H         -6.1148525066        1.4370894466       -2.2033866046
 H         -5.2555816495        2.5501243845       -1.1495161525
 C         -4.0069551024        1.2035207380       -2.2728387372
 H         -3.9925186827        0.1451914697       -2.5458235913
 H         -4.0230815209        1.7794359369       -3.2021801986
 C         -2.6921198644        1.5331738790       -1.5547033555
 H         -2.7173190557        2.5651534446       -1.1970644486
 H         -1.8837259900        1.4468987328       -2.2881751752
 H         -5.4660388628        0.4295157270        1.8196699022
 H         -5.9886055243        2.0145141975        1.2347333436
 H         -3.6956536622        1.9612795471        2.2838824818
 H         -3.7299693628        2.6356263200        0.6416222138
 O         -2.5137278576       -0.1321059070        1.8159865547
 C         -1.6417277032       -1.1849302204        1.6050284025
 O         -1.4454268429       -1.8917018323        2.6129527633
 O         -0.8948303116       -0.5761665250       -1.8957263378
 C         -0.1384804218       -2.5475597097        0.2183396136
 C          1.2936908068       -2.1391650435        0.4733963259
 C          2.0036420896       -2.7188409361        1.5188893982
 C          3.3229446170       -2.3769216388        1.7518961445
 C          3.9541121105       -1.4446520931        0.9499128989
 C          3.2528563116       -0.8536584271       -0.0957852798
 C          1.9292928628       -1.2015767566       -0.3305572894
 H          1.3996859161       -0.7413074303       -1.1504611940
 N          3.8888627041        0.0874467072       -0.9214822316
 S          3.0944458833        1.4906365762       -1.3618569650
 O          2.1605375644        1.2347916272       -2.4252573193
 O          4.1653523142        2.4154277257       -1.6716631505
 C          2.2548182836        2.0241278503        0.1180023770
 C          3.0255402623        2.4622131360        1.1777403695
 C          2.3966056663        2.8534586389        2.3476368496
 C          1.0135803000        2.7996454527        2.4379333963
 C          0.2549526943        2.3626558473        1.3639124367
 C          0.8794771404        1.9674012566        0.1912242717
 H          0.3217470846        1.6155131536       -0.6617820765
 H         -0.8208755309        2.3168394314        1.4317507777
 H          0.5210231042        3.1009165899        3.3489862501
 H          2.9822364158        3.1978010140        3.1846117574
 H          4.0965317561        2.5055588470        1.0643245853
 H          4.8442126025        0.2862513899       -0.6608033462
 H          4.9844826490       -1.1756316314        1.1255195280
 H          3.8625198816       -2.8363085030        2.5657729705
 H          1.5077917734       -3.4353431912        2.1568614393
 H         -0.4313671751       -3.2334678574        1.0255609267
 C         -0.2465550944       -3.2951735378       -1.0963117766
 C          0.1598990959       -4.7361838618       -1.1441839739
 C         -1.2874023885       -4.3610594896       -1.2499758316
 H         -1.7822350125       -4.4627874398       -2.2042113911
 H         -1.9286373553       -4.5595648468       -0.4030942812
 H          0.6632161000       -5.0987494498       -2.0272750168
 H          0.4977826280       -5.1930512497       -0.2262805407
 H         -0.0316782474       -2.6823943713       -1.9616350489
