  62
        -98.93517929
 C          1.9107366332        0.6320309863        0.6100952627
 C          3.2825901084        0.7606859782        0.9766953260
 C          4.1411064118       -0.4099113482        0.7773829048
 C          3.5951279940       -1.5672012800        0.3666913777
 C          4.3249805503       -2.8591319744        0.1203320201
 C          4.9894096413       -2.9475123871       -1.2605196189
 C          6.2350231039       -2.0787976865       -1.4417332843
 H          6.9297505961       -2.2664923709       -0.6224664427
 H          6.7221805730       -2.4059459320       -2.3625379985
 C          5.9498858511       -0.5737317089       -1.5432774324
 H          4.8917666669       -0.4175769705       -1.7657223241
 H          6.5171932668       -0.1511768720       -2.3756845363
 C          6.3155628476        0.2266501190       -0.2930936661
 H          7.3956034783        0.1868675146       -0.1352443464
 H          6.0392310408        1.2707274375       -0.4617643344
 C          5.6163307300       -0.2494542816        0.9867386830
 H          6.0546342947       -1.1871108285        1.3280877398
 H          5.7617710489        0.5079680449        1.7608433540
 H          4.2506131198       -2.6880881363       -2.0224416763
 H          5.2750350905       -3.9902525810       -1.4175553129
 H          5.0767354096       -3.0080896563        0.8962371565
 H          3.5825505573       -3.6563449905        0.1977086014
 O          2.2617795110       -1.6941285987        0.1622506603
 C          1.3821984934       -0.6201044052        0.2905383696
 O          0.1980073167       -0.9635941828        0.1103724284
 H         -0.3909550614        0.8949051338       -1.3039164415
 C         -1.0016893576        1.2727969045       -0.4978806196
 C         -0.4044347915        1.7855571120        0.6441779119
 C         -1.2250820855        2.2343384939        1.6732752772
 C         -2.6034382052        2.1803632487        1.5592356244
 C         -3.1934722096        1.6467451951        0.4281724684
 C         -2.3822187817        1.1679469281       -0.5924484127
 N         -2.9573396635        0.5651055763       -1.7227509157
 S         -4.3362011623       -0.3570946422       -1.5341908336
 O         -4.2824366287       -1.3374426055       -2.5979688667
 O         -5.4898693878        0.5117024613       -1.5565810845
 C         -4.2608043152       -1.1725960201        0.0555701753
 C         -5.4414354420       -1.2964569797        0.7628088226
 C         -5.4332528637       -1.9528923967        1.9823123021
 C         -4.2460757312       -2.4716879996        2.4756634181
 C         -3.0705433679       -2.3378268983        1.7543113825
 C         -3.0707715721       -1.6876413709        0.5292638458
 H         -2.1495249830       -1.5672353757       -0.0186044006
 H         -2.1401488477       -2.7284872687        2.1349211964
 H         -4.2347428735       -2.9791458300        3.4274457057
 H         -6.3483267419       -2.0545595227        2.5432256159
 H         -6.3383650585       -0.8666362499        0.3467221555
 H         -2.2873924674        0.0915454818       -2.3107436806
 H         -4.2651484090        1.5896679109        0.3228582680
 H         -3.2245210922        2.5461453154        2.3622366640
 H         -0.7745270371        2.6304976868        2.5720251546
 C          1.0862916840        1.9099138388        0.7631224183
 H          1.3160453110        2.2698892737        1.7806165698
 C          1.6266859187        3.0062194835       -0.1646906149
 C          1.0040331049        3.4523321224       -1.4502229100
 C          0.9505606161        4.3418062400       -0.2454441840
 H          1.5593488732        5.2329095644       -0.2241298716
 H         -0.0046346140        4.4467355005        0.2474195474
 H          0.0792901658        3.0056757584       -1.7778792916
 H          1.6699631403        3.7185560495       -2.2583815787
 H          2.7092953502        3.0333208091       -0.1324374509
 O          3.7698196809        1.8163882186        1.4613824483
