  62
        -98.94468917
 C         -2.0724907158        0.3592232304        0.1696278292
 C         -3.0602563766        0.8713591419       -0.7085941491
 C         -4.2505562577        0.0339477327       -0.9018714812
 C         -4.3209543417       -1.1594904765       -0.2844579614
 C         -5.4936832653       -2.0931834326       -0.3552885232
 C         -6.4897468441       -1.8214881959        0.7808739710
 C         -6.8676970304       -0.3479737212        0.9323969804
 H         -7.5969433575       -0.2814076547        1.7426947329
 H         -5.9861187520        0.2154992196        1.2464149898
 C         -7.4521535713        0.2913121679       -0.3349706158
 H         -8.3288047224        0.8804335664       -0.0574681209
 H         -7.7891952032       -0.4868532768       -1.0207334734
 C         -6.4962083873        1.2337501268       -1.0686325127
 H         -6.0842449447        1.9593625776       -0.3628286440
 H         -7.0724798321        1.7910993181       -1.8118906752
 C         -5.3303747735        0.5612410187       -1.8044620993
 H         -5.7118378691       -0.2303781352       -2.4525903264
 H         -4.8522999384        1.3187079028       -2.4323843598
 H         -7.3890251461       -2.4131405296        0.6000151375
 H         -6.0442010867       -2.1590636067        1.7195521697
 H         -5.9856338306       -1.9781044681       -1.3192009164
 H         -5.1243382126       -3.1162794625       -0.2661586991
 O         -3.3385997897       -1.6341875291        0.5218354742
 C         -2.1953607173       -0.8897434600        0.7785525923
 O         -1.3929384652       -1.4459788753        1.5522287543
 O         -2.9507394000        1.9779957466       -1.3006932802
 C         -0.8251731282        1.1953199968        0.4070550852
 C          0.3447300298        0.4993410563       -0.2424862907
 C          0.5157239710        0.6118067002       -1.6198935833
 C          1.5441583816       -0.0518358046       -2.2616580050
 C          2.4229235750       -0.8450244592       -1.5444854360
 C          2.2608201399       -0.9630077514       -0.1705732657
 C          1.2362283204       -0.2823602693        0.4754264582
 H          1.1139176504       -0.3975113049        1.5404931110
 N          3.1459311582       -1.7688848619        0.5625599759
 S          4.7807294353       -1.6600673290        0.2365841456
 O          5.0984141676       -2.4368817010       -0.9362076414
 O          5.4403254242       -2.0648804535        1.4581809823
 C          5.0760610408        0.0696280835       -0.0879889031
 C          5.5353912081        0.4721387598       -1.3252153658
 C          5.7288418735        1.8240081937       -1.5611867702
 C          5.4575605580        2.7450088317       -0.5616641714
 C          4.9997274619        2.3245038769        0.6778907961
 C          4.8051644654        0.9745603849        0.9193802082
 H          4.4560128882        0.6141499285        1.8735746242
 H          4.7909802828        3.0427717578        1.4543917382
 H          5.6046665605        3.7971617897       -0.7478940981
 H          6.0867783055        2.1535911836       -2.5232124850
 H          5.7328007768       -0.2771881515       -2.0743757517
 H          2.9551438577       -1.7994338126        1.5525856886
 H          3.2188031236       -1.3866637211       -2.0293723772
 H          1.6619684938        0.0435380623       -3.3303080243
 H         -0.1802957127        1.2182752580       -2.1823614121
 H         -1.0025839425        2.1353828169       -0.1325681121
 C         -0.6214180272        1.5076957189        1.8742987396
 C          0.3154385201        2.6098872241        2.2661252262
 C         -1.1632697163        2.7891758038        2.4299489220
 H         -1.5780824179        2.7824899728        3.4269327731
 H         -1.6775149074        3.4513710653        1.7489562221
 H          0.9181607377        2.4850371869        3.1526560290
 H          0.8047742792        3.1503576972        1.4703623654
 H         -0.6758284218        0.6335725319        2.5118111952
