  62
        -98.93203134
 C         -2.2252326209       -0.8012909446       -0.3856790932
 C         -3.5603400572       -1.1812940904       -0.0940752911
 C         -4.3965574473       -0.1974431622        0.6138159034
 C         -3.8469657761        0.9688710599        0.9924641979
 C         -4.5255346965        2.1233975610        1.6762560902
 C         -5.0280128392        3.1468539834        0.6436017977
 C         -6.4246257461        2.8701313056        0.0880302141
 H         -7.1653378773        3.0649004869        0.8664241329
 H         -6.6007801910        3.5859464672       -0.7182068398
 C         -6.6456181343        1.4553847498       -0.4537094406
 H         -5.7774684281        1.1457516323       -1.0384378420
 H         -7.4985219473        1.4869932179       -1.1344195905
 C         -6.9283836857        0.4236414312        0.6484398935
 H         -7.8331663350       -0.1340935149        0.3981073849
 H         -7.1367390864        0.9474603408        1.5811492050
 C         -5.8184316029       -0.6133740929        0.8761999707
 H         -5.8871174776       -0.9903101942        1.9022294668
 H         -5.9819381288       -1.4728448827        0.2184559258
 H         -5.0385422401        4.1352741790        1.1073815081
 H         -4.3046934920        3.1783773739       -0.1753928775
 H         -5.3346679740        1.7743918850        2.3109673571
 H         -3.7688566220        2.6020194235        2.3016067672
 O         -2.5469528882        1.2769979109        0.7390965459
 C         -1.7033403519        0.4192254021        0.0471446223
 O         -0.5537136758        0.8722100420       -0.1059392416
 O         -4.0402100644       -2.3002873583       -0.4197187763
 C         -1.3612112602       -1.8174695267       -1.1140651094
 C         -0.0875955420       -2.0438145359       -0.3416841956
 C         -0.1074735688       -2.8668586721        0.7802929214
 C          1.0310288724       -3.0470646501        1.5432248703
 C          2.2092790883       -2.4030581076        1.2085619366
 C          2.2341798473       -1.5693304418        0.0991324273
 C          1.0949864380       -1.4060691455       -0.6785393392
 H          1.1184378734       -0.7430111460       -1.5292041513
 N          3.4249839356       -0.9031966348       -0.2478033500
 S          4.3302679317       -0.2402326270        1.0153006023
 O          5.1700896637       -1.2792576404        1.5608761635
 O          3.4717416437        0.4324644932        1.9639780039
 C          5.3302598910        0.9404874247        0.1312640911
 C          4.7972080502        2.1874466057       -0.1371209179
 C          5.5589373106        3.1027012084       -0.8461660317
 C          6.8321726420        2.7565842835       -1.2742503250
 C          7.3524372199        1.5012090937       -0.9980203177
 C          6.5962017732        0.5809460369       -0.2892402537
 H          6.9587964673       -0.4039348916       -0.0454557565
 H          8.3428298538        1.2369864740       -1.3317625406
 H          7.4221897372        3.4720652653       -1.8249372674
 H          5.1566685246        4.0797348082       -1.0609483952
 H          3.8058182561        2.4174142418        0.2217887533
 H          3.2636333113       -0.2116486867       -0.9678802053
 H          3.1009547291       -2.5175762573        1.8041267483
 H          1.0018898439       -3.6886871170        2.4113584077
 H         -1.0326019354       -3.3547551881        1.0557082402
 H         -1.9507532147       -2.7475434077       -1.0763130443
 C         -1.1211138787       -1.5197479550       -2.5865118299
 C         -2.2246652452       -0.9647880886       -3.4356553092
 C         -1.0127480633       -0.1338986295       -3.1451053709
 H         -0.3073355965        0.0356530030       -3.9458176785
 H         -1.1063465312        0.6974259045       -2.4645907421
 H         -2.3578329855       -1.3556412861       -4.4329978118
 H         -3.1490212040       -0.7090512324       -2.9382125013
 H         -0.4911208192       -2.2755552079       -3.0460693295
