  62
        -98.93953915
 C         -2.6307333260       -1.2592642048        0.0306676748
 C         -2.7378210969       -0.2297656657       -0.9350146597
 C         -4.0800775334        0.3439729473       -1.1093729712
 C         -5.1038864517       -0.1377381799       -0.3812093716
 C         -6.5065107385        0.3948588637       -0.4164221184
 C         -6.7094998666        1.4899117198        0.6401886849
 C         -5.6253011012        2.5677554284        0.6295148828
 H         -5.8886334691        3.3012655143        1.3947593274
 H         -4.6736864303        2.1213949263        0.9279191283
 C         -5.4488542767        3.2776951622       -0.7200218365
 H         -6.3307292416        3.1167661321       -1.3411761291
 H         -5.3690822751        4.3521756299       -0.5420243242
 C         -4.1986009005        2.8614475374       -1.4973439438
 H         -3.3217988756        2.9324728694       -0.8481789410
 H         -4.0564731999        3.5708816027       -2.3169703486
 C         -4.2309913073        1.4553426003       -2.1094963165
 H         -5.1445399871        1.3288208176       -2.6939017371
 H         -3.3744717734        1.3680769883       -2.7843230193
 H         -7.6850102265        1.9513629350        0.4764778543
 H         -6.7163330792        1.0216672516        1.6272582135
 H         -6.7152836652        0.7895087842       -1.4087413101
 H         -7.1926775783       -0.4281813934       -0.2100161538
 O         -4.9650278120       -1.1444172159        0.5195672462
 C         -3.7271385879       -1.7174872668        0.7601763397
 O         -3.7324256261       -2.6101486788        1.6324629662
 H          1.2541048561       -1.3220665065       -0.6345819891
 C          0.9477267708       -0.6741425444        0.1718164279
 C         -0.3013864695       -0.8332506071        0.7487163597
 C         -0.6619914154        0.0120252947        1.7951940412
 C          0.1965949243        1.0007569114        2.2342605929
 C          1.4349265453        1.1714847053        1.6400039059
 C          1.8095958082        0.3283120110        0.6038502972
 N          3.0581821797        0.5027416769       -0.0199068389
 S          4.3985541989        0.7806541646        0.9689238979
 O          4.4258211369       -0.1811770854        2.0487975862
 O          4.4029920557        2.1671496001        1.3624305848
 C          5.7277932582        0.4719113393       -0.1768287113
 C          6.1266332145        1.4899250624       -1.0219999686
 C          7.1410245737        1.2440983150       -1.9335460981
 C          7.7349029190       -0.0083015793       -1.9855443932
 C          7.3241265617       -1.0198549388       -1.1303896208
 C          6.3096109014       -0.7810819922       -0.2167145631
 H          5.9651848329       -1.5348451632        0.4731871591
 H          7.7896413324       -1.9914440743       -1.1717358164
 H          8.5249951744       -0.1965644802       -2.6952109811
 H          7.4650103901        2.0282832583       -2.5986344992
 H          5.6418436727        2.4486633922       -0.9400374589
 H          3.2508863914       -0.2262315433       -0.6934164551
 H          2.1139421403        1.9404243585        1.9713325411
 H         -0.0996800562        1.6490962133        3.0457383139
 H         -1.6308641996       -0.1178060740        2.2596259268
 C         -1.2805640068       -1.8953166267        0.3090891884
 H         -1.4361737143       -2.5821798143        1.1539576547
 C         -0.8234890692       -2.6968066412       -0.8916088006
 C          0.0985248697       -3.8645288841       -0.7122415826
 C         -1.3399643620       -4.0921881238       -1.0653047698
 H         -1.5804200879       -4.4329635134       -2.0611267781
 H         -2.0033167052       -4.4727644202       -0.3021483797
 H          0.8447979222       -4.0551961371       -1.4688761495
 H          0.4171473395       -4.1002681304        0.2920776835
 H         -0.7177978390       -2.0886433682       -1.7826513830
 O         -1.7664629704        0.1887396296       -1.6170264894
