  62
        -98.93316330
 C          1.7747442636        1.1371958628        0.1854400686
 C          3.1403570985        1.1620912579        0.5605375904
 C          4.0389285650        0.1903073128       -0.0923477015
 C          3.5154232249       -0.6754406596       -0.9797043025
 C          4.2179832816       -1.7702727050       -1.7369631892
 C          4.5142519230       -2.9991221340       -0.8609917490
 C          5.0449225646       -2.6823990523        0.5350121817
 H          4.3304973633       -2.0400642122        1.0531245169
 H          5.0980891755       -3.6221744371        1.0909149526
 C          6.4286695002       -2.0384791996        0.5756237191
 H          7.1494847856       -2.7090613457        0.1023207573
 H          6.7097477464       -1.9381402631        1.6271404659
 C          6.5459564367       -0.6614916275       -0.0806327908
 H          6.5762637632       -0.7457818237       -1.1636823250
 H          7.5072399478       -0.2370528718        0.2238063841
 C          5.4768921552        0.3417095695        0.3417919816
 H          5.4549065695        0.4028562265        1.4357730433
 H          5.7845584372        1.3393739664        0.0048312447
 H          3.5841117764       -3.5601409771       -0.7431153316
 H          5.2269812471       -3.6349815752       -1.3887101380
 H          3.5483805218       -2.0725906167       -2.5452741237
 H          5.1278025621       -1.3855602142       -2.1883016124
 O          2.1860190841       -0.6917650068       -1.2792774023
 C          1.2826052268        0.1945544199       -0.7171273346
 O          0.1086424744        0.0248375242       -1.0959797141
 O          3.5976363951        1.9623231487        1.4198772737
 C          0.8466836419        2.1434558800        0.8420914229
 C         -0.4305725279        1.4665480252        1.2678869071
 C         -0.3655188888        0.4627725540        2.2309637751
 C         -1.4989135959       -0.2212504477        2.6252354046
 C         -2.7269370271        0.0808528378        2.0627927922
 C         -2.8037578803        1.0813717639        1.1045591212
 C         -1.6660536234        1.7753150027        0.7192105375
 H         -1.7481540210        2.5276526172       -0.0502705194
 N         -4.0701351337        1.3540336624        0.5172485693
 S         -4.3870019381        0.4163350604       -0.8572024624
 O         -3.5336356521        0.8209834201       -1.9541464679
 O         -5.8052891946        0.5666523513       -1.1076949405
 C         -4.0297792656       -1.2452341949       -0.3418710641
 C         -2.7382275213       -1.7225825683       -0.4493722720
 C         -2.4720049503       -3.0105755452       -0.0102370357
 C         -3.4884015448       -3.7886403176        0.5227107964
 C         -4.7796386801       -3.2917384013        0.6197622085
 C         -5.0554682992       -2.0053467756        0.1858704392
 H         -6.0414879392       -1.5733685411        0.2384704823
 H         -5.5676378717       -3.9000818841        1.0335896536
 H         -3.2709542174       -4.7886899915        0.8638208266
 H         -1.4661025319       -3.3927164158       -0.0839431734
 H         -1.9641444983       -1.0914782022       -0.8596472903
 H         -4.1511990552        2.3206352790        0.2258075737
 H         -3.6204189513       -0.4460965565        2.3554471198
 H         -1.4271178184       -0.9978969179        3.3709632234
 H          0.5973957360        0.2173817079        2.6583137437
 H          1.3857954364        2.4630179439        1.7496083451
 C          0.6130329193        3.3983194216        0.0138201903
 C          1.6567145335        3.9062413142       -0.9339305621
 C          0.3721296701        3.3475534317       -1.4644343014
 H         -0.3476977275        4.0304748546       -1.8930955213
 H          0.3834031759        2.3798807399       -1.9424566977
 H          1.8190057891        4.9718038624       -0.9950862328
 H          2.5561521533        3.3199025481       -1.0512965911
 H          0.0636375740        4.1529242020        0.5694792475
