  62
        -98.93434176
 C          1.7231438270        1.1247113907        0.0563288274
 C          2.1854100697       -0.0682543287       -0.5501061842
 C          3.6482256544       -0.1969302459       -0.7002644841
 C          4.4528903403        0.7872608165       -0.2672086259
 C          5.9553965273        0.8798132497       -0.3580047501
 C          6.7627080724       -0.3786588321       -0.0078244694
 C          6.1280527811       -1.2845736532        1.0574942401
 H          6.8726301112       -1.5037563477        1.8251050515
 H          5.3001472480       -0.7673517665        1.5453461566
 C          5.6335493239       -2.6177186588        0.4904424279
 H          5.5458668529       -3.3365406977        1.3087004210
 H          6.3847074583       -3.0027057648       -0.2028167962
 C          4.2791165870       -2.5711165988       -0.2163480748
 H          3.4816162903       -2.4170069203        0.5158317197
 H          4.1051375443       -3.5474839851       -0.6752331606
 C          4.1326624832       -1.4870116057       -1.2965865584
 H          5.0595385565       -1.3527915896       -1.8492898358
 H          3.3545040126       -1.8113037928       -1.9931427728
 H          6.9359694889       -0.9629671750       -0.9105635641
 H          7.7404121873       -0.0397819051        0.3388188257
 H          6.2165797102        1.2021486152       -1.3701165761
 H          6.2305291479        1.6916021964        0.3195252813
 O          3.9648047321        1.9136649227        0.3252973757
 C          2.6075975903        2.1020469919        0.5181847715
 O          2.3181108210        3.1606540048        1.1101949039
 H         -1.7329789391       -0.1837869562       -0.8466454502
 C         -1.4330954595       -0.5134180971        0.1331165190
 C         -0.4279124694        0.1441686582        0.8229760310
 C         -0.0277913141       -0.3582377208        2.0590505095
 C         -0.6105561500       -1.4955031109        2.5821781888
 C         -1.6242568766       -2.1425025745        1.8966609645
 C         -2.0310971313       -1.6489521330        0.6636710784
 N         -3.0552021492       -2.2790219755       -0.0553884822
 S         -4.1087642257       -1.3815596260       -0.9842041851
 O         -5.3065473951       -2.1923164321       -1.0519462297
 O         -3.5155128457       -1.0393314971       -2.2519329087
 C         -4.4319395935        0.1008035288       -0.0429142642
 C         -4.2295512561        1.3355161579       -0.6243532880
 C         -4.4792950257        2.4780926477        0.1192952820
 C         -4.9237152412        2.3660163199        1.4273312844
 C         -5.1292593669        1.1182215010        1.9958755416
 C         -4.8833627593       -0.0267152093        1.2558975324
 H         -5.0415323396       -1.0098667811        1.6679595082
 H         -5.4780936850        1.0350816166        3.0125131134
 H         -5.1121298204        3.2567490975        2.0056037129
 H         -4.3224587694        3.4495062453       -0.3223831057
 H         -3.8782523257        1.3770290655       -1.6432449737
 H         -3.5106647375       -3.0453233616        0.4164853269
 H         -2.0837101054       -3.0301821953        2.3039156563
 H         -0.2803585703       -1.8794140316        3.5357584152
 H          0.7613322195        0.1502994940        2.5969028363
 C          0.2458781934        1.3864106818        0.2956727949
 H          0.2202739998        2.1456044656        1.0951419966
 C         -0.4819888802        1.9898728135       -0.8958219140
 C          0.2273805999        2.8695848868       -1.8799859051
 C         -0.2543882463        1.5140320581       -2.2977018752
 H         -1.1038115520        1.4446539127       -2.9624776262
 H          0.4721761317        0.7309120252       -2.4473755502
 H          1.2895189263        3.0165096469       -1.7472491060
 H         -0.2894910713        3.7398986222       -2.2552959801
 H         -1.4971219677        2.2777456400       -0.6388457202
 O          1.4322036259       -0.9887226927       -0.9584396294
