  62
        -98.93368257
 C          1.5805897342        0.2970872297        0.3938537360
 C          2.7421770890        0.9846235728       -0.0326579016
 C          3.8616605171        0.1402525643       -0.4804088616
 C          3.7272652813       -1.1967798015       -0.5107781893
 C          4.7436373103       -2.1961410558       -0.9964017904
 C          6.0444581842       -2.2988481720       -0.1766849519
 C          7.1943896501       -1.4310973117       -0.7029499917
 H          8.1256534428       -1.9953538810       -0.6208512500
 H          7.0350544506       -1.2436456244       -1.7655645351
 C          7.4135640716       -0.1005084324        0.0235130209
 H          7.9304822330       -0.2902313199        0.9670751891
 H          8.0731801750        0.5129099553       -0.5941660176
 C          6.1515418931        0.6997536124        0.3462357626
 H          6.4544466188        1.6959789634        0.6748360093
 H          5.6323454200        0.2414422296        1.1913596905
 C          5.1531505596        0.8258038331       -0.8208993009
 H          4.9134178150        1.8766951216       -0.9942121516
 H          5.5762753274        0.4145223575       -1.7360470859
 H          5.8362994437       -2.0645025884        0.8669515206
 H          6.3610231451       -3.3423567581       -0.2164810344
 H          4.2332065312       -3.1611286431       -0.9763787532
 H          4.9885288100       -1.9696837602       -2.0366239788
 O          2.5798743991       -1.8192295708       -0.1253895189
 C          1.4979665826       -1.0988037438        0.3462479857
 O          0.5283469778       -1.8036050274        0.6907029431
 O          2.8656770585        2.2380031166       -0.0558966995
 C          0.3362502287        0.9954764195        0.9180561766
 C         -0.5381084764        1.4859219823       -0.2112114850
 C         -0.1122421350        2.4801976254       -1.0855252818
 C         -0.9464486560        2.9234559220       -2.0950406951
 C         -2.2205139030        2.4026399419       -2.2394629412
 C         -2.6535786569        1.4055863674       -1.3733448059
 C         -1.8051917521        0.9460133602       -0.3759117610
 H         -2.1390764309        0.1606651670        0.2847890037
 N         -3.9308687872        0.8461754709       -1.5055719581
 S         -4.7947468067        0.3441984877       -0.1651932344
 O         -6.1718949180        0.3379963192       -0.6108157768
 O         -4.5064280582        1.1575256435        0.9926883694
 C         -4.2684499212       -1.3343924776        0.1012698573
 C         -4.3320572664       -2.2145144292       -0.9605382447
 C         -3.9452613609       -3.5297606197       -0.7628139233
 C         -3.5058702558       -3.9410144564        0.4864629907
 C         -3.4517106736       -3.0463442108        1.5433803664
 C         -3.8372239630       -1.7293406187        1.3514183061
 H         -3.8048857634       -1.0000899354        2.1460718532
 H         -3.1050991423       -3.3667488329        2.5127872004
 H         -3.2013083787       -4.9644701906        0.6384186147
 H         -3.9845656689       -4.2299247760       -1.5818227969
 H         -4.6819913458       -1.8589607709       -1.9153667117
 H         -4.5204431658        1.2778708157       -2.2017105640
 H         -2.8754441755        2.7617690915       -3.0188831097
 H         -0.6059419623        3.6934449809       -2.7709671612
 H          0.8785635595        2.8916624027       -0.9706066619
 H         -0.2296671490        0.2233610337        1.4570822879
 C          0.6338281873        2.1268001677        1.8840707900
 C         -0.4803543196        2.6463271346        2.7405394005
 C          0.6337486294        1.8551877785        3.3566019535
 H          1.3516220512        2.3718717893        3.9759438675
 H          0.4240936575        0.8459036246        3.6804752394
 H         -0.5269658355        3.7066691240        2.9367344912
 H         -1.4494563864        2.1788049973        2.6405219163
 H          1.3547683464        2.8395276535        1.5069163650
