  62
        -98.93779791
 C          1.4707891792        0.7875927907       -0.3723427786
 C          2.7463881892        1.3964565608       -0.3986329881
 C          3.8973964393        0.4828542610       -0.4608470181
 C          3.6779302694       -0.8443555490       -0.4984556485
 C          4.7445519896       -1.9024400689       -0.4797572584
 C          5.2957359992       -2.0688419392        0.9508964617
 C          6.7631073991       -1.6711184491        1.1116431022
 H          6.9744696088       -1.6254434693        2.1821867522
 H          7.3926466893       -2.4549182589        0.6851113621
 C          7.1687360991       -0.3423125789        0.4666603926
 H          8.1415645790       -0.0709009189        0.8822738529
 H          7.3177279694       -0.4841997686       -0.6048094474
 C          6.2001200089        0.8287714210        0.6763878826
 H          6.7908657988        1.7335685710        0.8341012330
 H          5.6043146187        0.6787593007        1.5770189824
 C          5.2641602892        1.1079707611       -0.5146065875
 H          5.0761063291        2.1847295611       -0.5642594173
 H          5.7619402295        0.8193417314       -1.4446113275
 H          4.6799686089       -1.4716668095        1.6266969516
 H          5.1875769492       -3.1081807393        1.2645311414
 H          4.2872854598       -2.8312343289       -0.8208820888
 H          5.5423436197       -1.6328720987       -1.1682437582
 O          2.4346235795       -1.3910395592       -0.4790479989
 C          1.2982634594       -0.5962008293       -0.4139087190
 O          0.2268400895       -1.2271381395       -0.3993985095
 O          2.9153676390        2.6461487308       -0.3668051878
 C          0.2339662091        1.6637879705       -0.3110131487
 C         -0.6244324612        1.2786834701        0.8676442509
 C         -0.0280319915        1.0795172199        2.1105262410
 C         -0.7823343317        0.7019852795        3.2037649107
 C         -2.1469409417        0.5043659694        3.0818437503
 C         -2.7549479214        0.7189811196        1.8516161102
 C         -1.9963658311        1.1182243300        0.7589928305
 H         -2.4976696009        1.3038815402       -0.1749578096
 N         -4.1360432813        0.5472660395        1.6995711798
 S         -4.7999414809        0.1066085898        0.2343455695
 O         -4.8495977208        1.2452849400       -0.6488719102
 O         -6.0829630109       -0.4632406104        0.5887819790
 C         -3.7470899805       -1.1579197299       -0.4529650005
 C         -3.2844122702       -1.0237714195       -1.7452353104
 C         -2.4857352900       -2.0210027693       -2.2793403404
 C         -2.1626665100       -3.1290667495       -1.5140680706
 C         -2.6374886704       -3.2508552098       -0.2183317908
 C         -3.4389138506       -2.2585961701        0.3200033993
 H         -3.8242574109       -2.3294667804        1.3244061992
 H         -2.3776143004       -4.1124865400        0.3753912591
 H         -1.5305535298       -3.8985654693       -1.9279573606
 H         -2.1094422197       -1.9257269290       -3.2858659703
 H         -3.5521294302       -0.1406881294       -2.3043561902
 H         -4.6114924915        0.1239578593        2.4819433596
 H         -2.7354197219        0.1933449191        3.9312466301
 H         -0.3036973920        0.5479922293        4.1592703708
 H          1.0405209385        1.2176730700        2.2051459314
 H          0.6026052789        2.6888292405       -0.1558770084
 C         -0.5069589805        1.6047212108       -1.6307990290
 C         -1.3224802206        2.7723032808       -2.0969657989
 C         -0.0292862503        2.4412962511       -2.7780246886
 H         -0.0601578100        2.0205869014       -3.7718316187
 H          0.8207026595        3.0844703712       -2.6024550182
 H         -2.2494268504        2.5823450608       -2.6177564492
 H         -1.3524006208        3.6457057206       -1.4629134987
 H         -0.8676185204        0.6063185008       -1.8544382993
