  62
        -98.93335244
 C         -2.6570539994       -0.4859249422        0.0677041692
 C         -2.2963588554       -1.3346934715       -1.0080063605
 C         -1.5508825012       -2.5614005706       -0.6805768759
 C         -1.2366062373       -2.8010320234        0.6038265303
 C         -0.3981243219       -3.9178946117        1.1627394975
 C          1.0810811647       -3.4975925082        1.2326147942
 C          1.8963780197       -3.8219321629       -0.0176548750
 H          2.8950962192       -3.4043821666        0.1310115682
 H          1.9984934599       -4.9061676759       -0.1082852040
 C          1.3253015492       -3.2652618844       -1.3238773285
 H          2.1354413759       -3.2348892520       -2.0556110697
 H          0.9978494696       -2.2358008293       -1.1655217784
 C          0.1745508614       -4.1092271756       -1.8913664344
 H          0.3774418151       -4.3378946460       -2.9400158957
 H          0.1365655022       -5.0645977784       -1.3680505288
 C         -1.2046558008       -3.4408861956       -1.8516403904
 H         -1.3154179240       -2.7902101481       -2.7249108885
 H         -1.9766694384       -4.2140080673       -1.9392492705
 H          1.5482359654       -3.9988886393        2.0836033843
 H          1.1219994938       -2.4205060539        1.4245737587
 H         -0.7595856029       -4.0968138386        2.1777471159
 H         -0.5219943293       -4.8271101321        0.5816547477
 O         -1.6262380246       -1.9764026757        1.6137984809
 C         -2.3095087438       -0.7927781246        1.3829905621
 O         -2.5487610552       -0.1457542164        2.4214753500
 H         -0.9472135934        1.2195870143        0.9811423012
 C         -1.0280349198        1.8329730957        0.0936752794
 C         -2.1844802061        1.8013303678       -0.6727317001
 C         -2.2457323417        2.6118141249       -1.7996474650
 C         -1.1712418696        3.4087717008       -2.1588350500
 C          0.0025339700        3.3839703923       -1.4249502851
 C          0.0668180115        2.5853494498       -0.2930061783
 N          1.3008593645        2.4385675907        0.4131411113
 S          1.7566892283        0.8189423378        0.5935601257
 O          1.1435439164        0.0375282300       -0.4499015871
 O          1.5458294169        0.3912463146        1.9624755307
 C          3.5071002624        0.9464752054        0.2806720732
 C          4.4033720316        0.9472693979        1.3308270691
 C          5.7551559366        1.0919986295        1.0588759956
 C          6.1838776105        1.2373826702       -0.2514061864
 C          5.2712157172        1.2347831355       -1.2960411045
 C          3.9194153922        1.0893493208       -1.0299731629
 H          3.1725760483        1.0735378633       -1.8070796197
 H          5.6076260367        1.3459514103       -2.3142950192
 H          7.2357859771        1.3516590936       -0.4604646942
 H          6.4666238085        1.0917883905        1.8689650472
 H          4.0248176249        0.8252898064        2.3329330577
 H          1.2965297512        2.8803298072        1.3220199103
 H          0.8642332434        3.9586903813       -1.7225396851
 H         -1.2372040386        4.0285701492       -3.0398908705
 H         -3.1328134425        2.5902151363       -2.4158884818
 C         -3.2922813718        0.8424588732       -0.3089801560
 H         -3.8686073543        0.6425834612       -1.2266352901
 C         -4.2532527941        1.3995418228        0.7281008194
 C         -3.9153227979        2.5624506625        1.6073215388
 C         -4.9128690179        2.7281784917        0.5028409835
 H         -5.9554868563        2.8351851332        0.7598736413
 H         -4.6073155149        3.2963836906       -0.3623395968
 H         -4.2604261171        2.5334490022        2.6292742749
 H         -2.9433537763        3.0174321168        1.4930913161
 H         -4.8606104967        0.6206001330        1.1763537304
 O         -2.5903635919       -1.0690422124       -2.2059309115
