  62
        -98.94439268
 C         -1.9254972897       -1.0589741002       -0.2249718999
 C         -2.4448632798        0.0896976002       -0.8686633592
 C         -3.9030822098        0.2611799500       -0.7868376890
 C         -4.6434324697       -0.6687616304       -0.1562165995
 C         -6.1281328697       -0.5899621607        0.0481106806
 C         -6.4680810097        0.0969109585        1.3783416811
 C         -5.7292961398        1.4171704984        1.5979211019
 H         -6.0694555597        1.8253219478        2.5521282021
 H         -4.6600949297        1.2162247684        1.6969761517
 C         -5.9463027299        2.4578237391        0.4905283425
 H         -6.1366547100        3.4280575088        0.9541690331
 H         -6.8304850699        2.1990745893       -0.0931548076
 C         -4.7542277300        2.6410046997       -0.4509289874
 H         -4.9279812101        3.5399374501       -1.0485377969
 H         -3.8458830800        2.8082813194        0.1337866826
 C         -4.4911414599        1.4869996404       -1.4267968782
 H         -5.4097526800        1.2412393606       -1.9635649983
 H         -3.7488961100        1.8297741909       -2.1538349280
 H         -7.5451377197        0.2704949484        1.4119712313
 H         -6.2072992096       -0.5810742020        2.1942873207
 H         -6.5281046496       -1.6052164307        0.0609445200
 H         -6.5756032998       -0.0441027202       -0.7800828590
 O         -4.1100039896       -1.7764773608        0.4196118998
 C         -2.7417576896       -1.9918098706        0.4141858496
 O         -2.3801264594       -3.0301822010        1.0037713389
 O         -1.7313998299        0.9301856306       -1.4761397087
 C         -0.4293675396       -1.3180671401       -0.2311970001
 C          0.3049026603       -0.1272684703        0.3345961206
 C         -0.1257212697        0.4116953189        1.5450950709
 C          0.5002636403        1.5139612786        2.0919164816
 C          1.5827477702        2.0937744491        1.4529190119
 C          2.0293846402        1.5573930898        0.2524043115
 C          1.3953118602        0.4495310601       -0.2964295692
 H          1.7550075302        0.0685772407       -1.2369797494
 N          3.1210175401        2.1296488103       -0.4207187982
 S          4.3190795801        1.1497085008       -1.0515607489
 O          5.4469154100        2.0346241910       -1.2436177784
 O          3.8441013601        0.4623273215       -2.2243269293
 C          4.6689639803       -0.0117701699        0.2554785904
 C          4.1686053104       -1.2955167299        0.1874913896
 C          4.3955755705       -2.1588710406        1.2478407791
 C          5.1134624805       -1.7252973812        2.3513971093
 C          5.6147757204       -0.4332106612        2.4019730401
 C          5.3883144803        0.4350905494        1.3469627806
 H          5.7706806502        1.4429570495        1.3433827712
 H          6.1772936405       -0.1014084317        3.2597346702
 H          5.2852129606       -2.3999605417        3.1752257389
 H          4.0087801706       -3.1648655606        1.2093240285
 H          3.6186970004       -1.5962650894       -0.6888492705
 H          3.5196035600        2.9334861401        0.0419646123
 H          2.0690203201        2.9607089488        1.8737084024
 H          0.1456652303        1.9260446980        3.0247158918
 H         -0.9719760896       -0.0412615415        2.0442608807
 H         -0.2674344295       -2.1737665505        0.4408304993
 C          0.0222939803       -1.7035107692       -1.6243925404
 C          1.1581423404       -2.6616793489       -1.8136285711
 C         -0.2449055696       -3.0935283289       -2.1150972713
 H         -0.5366608297       -3.2293191283       -3.1457134413
 H         -0.7288223795       -3.7748836693       -1.4302206016
 H          1.8383850803       -2.4993972484       -2.6370136310
 H          1.6213081705       -3.0648423495       -0.9255129613
 H         -0.0900228398       -0.8960569587       -2.3394637099
