  62
        -98.93169319
 C         -2.4969581840       -1.0794819167        0.4941825450
 C         -3.3487684378       -0.7758441486       -0.5934683499
 C         -4.5629564396        0.0146246260       -0.2871753910
 C         -4.7826012774        0.4153580602        0.9778332733
 C         -5.9160552329        1.2486066373        1.5154480370
 C         -5.7778059012        2.7389528974        1.1676925309
 C         -5.3795179092        3.0258304299       -0.2773407463
 H         -5.2206086009        4.1034546601       -0.3698810781
 H         -4.4260769621        2.5387006126       -0.4890490489
 C         -6.4066339548        2.6127254710       -1.3288155939
 H         -7.3525275183        3.1194356852       -1.1248986204
 H         -6.0413580182        2.9688980955       -2.2954184183
 C         -6.6739374773        1.1105558253       -1.4491645354
 H         -7.3319716496        0.7620364952       -0.6576428237
 H         -7.2093965844        0.9500381784       -2.3895244970
 C         -5.4194409936        0.2450383180       -1.5094089925
 H         -5.7022083992       -0.7548367231       -1.8602739013
 H         -4.7485287389        0.6391059023       -2.2811281479
 H         -5.0099259831        3.1675001506        1.8164142394
 H         -6.7241520244        3.2338657897        1.3927505956
 H         -6.8665579132        0.8568163886        1.1656649870
 H         -5.8925755807        1.1418333922        2.6023244539
 O         -3.9182834320        0.1185755196        1.9917102406
 C         -2.7782187228       -0.6274376979        1.7853843185
 O         -2.1019956611       -0.8307530008        2.8153288503
 H          1.1321971220       -1.7336983995        1.6345072757
 C          1.1020372324       -1.0987703493        0.7586071528
 C         -0.0513904991       -1.0558542686       -0.0107892268
 C         -0.0806441316       -0.2197976143       -1.1226435071
 C          1.0242269862        0.5435660367       -1.4533410880
 C          2.1739006103        0.4954895965       -0.6839741065
 C          2.2111807379       -0.3291192356        0.4318879522
 N          3.3729583720       -0.3691379663        1.2233820490
 S          4.8261191308       -0.7238125906        0.4563548119
 O          4.6123710831       -1.5427957994       -0.7141981003
 O          5.6715096885       -1.2826486308        1.4884025809
 C          5.4639781210        0.8683448228       -0.0190959113
 C          5.6559126332        1.8158455304        0.9673241239
 C          6.1618125661        3.0563165700        0.6132119019
 C          6.4682511905        3.3255263444       -0.7126059109
 C          6.2729973173        2.3621746734       -1.6904263185
 C          5.7660675461        1.1195312989       -1.3431401524
 H          5.5930527170        0.3414290213       -2.0694811725
 H          6.5124064091        2.5731092386       -2.7203301506
 H          6.8621743051        4.2919082927       -0.9851881920
 H          6.3154498788        3.8080965892        1.3705432330
 H          5.4095116616        1.5655829514        1.9857378918
 H          3.2725749846       -0.9218256510        2.0628530764
 H          3.0360664300        1.0902249374       -0.9383333707
 H          0.9899472918        1.1852809479       -2.3207293903
 H         -0.9753925325       -0.1838238404       -1.7254430494
 C         -1.2336019003       -1.9134739435        0.3595186151
 H         -1.0483975572       -2.3080235652        1.3716479737
 C         -1.4088786879       -3.1154412915       -0.5597837924
 C         -0.7437457527       -3.2589099840       -1.8919767529
 C         -0.2822011456       -4.0908817878       -0.7358978253
 H         -0.5036248184       -5.1474318581       -0.7304285366
 H          0.6696411136       -3.8375259033       -0.2915903716
 H         -1.3085945516       -3.7299469051       -2.6817436427
 H         -0.0988111867       -2.4652843773       -2.2339536642
 H         -2.4046953133       -3.5393635614       -0.4771884337
 O         -3.1327447798       -1.1332745012       -1.7794655677
