  62
        -98.93794371
 C          2.4646633688        0.9279017132        0.7258130994
 C          3.5226878080        0.9390378115       -0.2160960399
 C          4.6526229066        0.0481521220        0.0842497513
 C          4.6383404181       -0.7143891411        1.1915048667
 C          5.7255513718       -1.6535312613        1.6384575372
 C          5.6654649977       -3.0391002493        0.9810272830
 C          6.0793855252       -3.0797864856       -0.4905180823
 H          7.0513165666       -2.5993174626       -0.6070768873
 H          6.2012700839       -4.1308136510       -0.7599529350
 C          5.0676537385       -2.4389709297       -1.4509823885
 H          4.9139109841       -3.0960940422       -2.3099957179
 H          4.1015701190       -2.3381728396       -0.9505173960
 C          5.4869890768       -1.0734171352       -1.9952347554
 H          6.3804305780       -1.1840524868       -2.6138874093
 H          4.6814662034       -0.6965908524       -2.6306684187
 C          5.7689492283       -0.0223192021       -0.9139452680
 H          6.7128253117       -0.2396705605       -0.4146101061
 H          5.8445872993        0.9544901538       -1.3978220509
 H          4.6511983629       -3.4315145307        1.0847107308
 H          6.3347442970       -3.6950000309        1.5425998185
 H          6.6998503705       -1.2020099333        1.4493810985
 H          5.6033493675       -1.7786675477        2.7165088924
 O          3.6017423509       -0.7000595507        2.0710379245
 C          2.4950039359        0.1002840923        1.8527624793
 O          1.6130243776       -0.0015345021        2.7302254115
 H         -1.1353861069        0.6170228114        1.1759528883
 C         -0.9362692899        0.5814489446        0.1128865293
 C          0.2415983949        1.1299840472       -0.3739583481
 C          0.4949528563        1.0619353867       -1.7397085912
 C         -0.4126349752        0.4554899193       -2.5892127469
 C         -1.5849704672       -0.0935904610       -2.1003445216
 C         -1.8461816372       -0.0334902497       -0.7381732657
 N         -3.0254797530       -0.6076372668       -0.2290795257
 S         -4.4537459178       -0.3032677340       -1.0809075968
 O         -4.5475296939       -1.2482979315       -2.1653026340
 O         -4.5184475946        1.0922790511       -1.4525706833
 C         -5.6815591388       -0.6741899166        0.1557156157
 C         -6.0924527380       -1.9830257401        0.3218352669
 C         -7.0298495018       -2.2705830088        1.3012386482
 C         -7.5365645064       -1.2513732234        2.0938447320
 C         -7.1149860218        0.0576249537        1.9145514472
 C         -6.1772025818        0.3521445556        0.9375574957
 H         -5.8289808381        1.3564979962        0.7561922970
 H         -7.5128417779        0.8481829929        2.5302857025
 H         -8.2669685023       -1.4776865426        2.8544939743
 H         -7.3624796597       -3.2862535540        1.4424688352
 H         -5.6781375029       -2.7403837703       -0.3229488769
 H         -3.1417641746       -0.4249112380        0.7583812259
 H         -2.3023249979       -0.5625371898       -2.7548366607
 H         -0.2052646296        0.4083525121       -3.6480028603
 H          1.4156412271        1.4714528021       -2.1252779626
 C          1.2130829953        1.7804478288        0.5827619128
 H          0.7465588293        1.7843080928        1.5771382665
 C          1.5047902856        3.2153263151        0.1904872727
 C          0.4627731471        4.2597302589        0.4500689300
 C          1.7210786237        4.2370061761        1.2639899749
 H          2.4578977945        5.0086183266        1.0991101960
 H          1.6591360869        3.9053635867        2.2905291427
 H          0.3320597529        5.0479114130       -0.2753412398
 H         -0.4546443403        3.9439538997        0.9239770622
 H          2.0985601973        3.3076532026       -0.7084652193
 O          3.5528483496        1.6490844377       -1.2550935452
