  62
        -98.93781738
 C         -1.2616303350       -1.2112976300       -0.2452116397
 C         -2.4383683334       -1.2375225140        0.5431668239
 C         -3.5144594961       -0.2950554787        0.1905181713
 C         -3.3168452470        0.5618160110       -0.8269878380
 C         -4.2488052544        1.6130035930       -1.3754277838
 C         -5.0038991151        2.4696560491       -0.3476412564
 C         -6.5013520248        2.1634259651       -0.2808192233
 H         -7.0200709203        3.0435574759        0.1056650742
 H         -6.8654587363        1.9902093847       -1.2956456774
 C         -6.8835780948        0.9770897159        0.6025114325
 H         -6.7480696087        1.2495989152        1.6514124963
 H         -7.9480976813        0.7828956423        0.4518420027
 C         -6.1067263186       -0.3135268842        0.3354381198
 H         -5.9716969063       -0.4627675358       -0.7352418224
 H         -6.7098281255       -1.1475262175        0.7005575874
 C         -4.7475712203       -0.3725596834        1.0486571326
 H         -4.6929758893        0.4059720735        1.8153446393
 H         -4.6520775939       -1.3240098802        1.5813702110
 H         -4.5475461285        2.3569413798        0.6348343572
 H         -4.8863327633        3.5153057695       -0.6374232760
 H         -3.6171669993        2.2520045684       -1.9972066077
 H         -4.9605479999        1.1283336934       -2.0488096430
 O         -2.1674570670        0.5597905856       -1.5573091286
 C         -1.1169959685       -0.3063889878       -1.2968647978
 O         -0.1528521958       -0.1601067308       -2.0725136261
 O         -2.5904346451       -2.0368494353        1.5077307889
 C         -0.1729571242       -2.1936945994        0.1407601879
 C          0.8101018513       -1.6060409232        1.1285561243
 C          1.3734821105       -2.4080651415        2.1156662783
 C          2.2894309632       -1.8856605312        3.0097314378
 C          2.6695262519       -0.5579321817        2.9315161918
 C          2.1099768106        0.2543425299        1.9518023468
 C          1.1867625655       -0.2738813452        1.0592438251
 H          0.7488384476        0.3741734356        0.3172699825
 N          2.4577435667        1.6096777159        1.8675031773
 S          2.6053237993        2.3653976059        0.3814587545
 O          3.3783119341        3.5548485184        0.6755999039
 O          1.3058414710        2.5900252089       -0.1977100818
 C          3.5923811808        1.2463327572       -0.5946241704
 C          4.9366689328        1.1650446083       -0.2815991344
 C          5.7371129207        0.2741833086       -0.9757957726
 C          5.1808219579       -0.5222788444       -1.9658652989
 C          3.8327492233       -0.4246249193       -2.2699276650
 C          3.0237358416        0.4669671118       -1.5800859134
 H          1.9704200889        0.5541624000       -1.7984639795
 H          3.3956432165       -1.0387691983       -3.0415474165
 H          5.8008912503       -1.2204811723       -2.5057342750
 H          6.7873869320        0.2013884743       -0.7438557616
 H          5.3314288902        1.8125389970        0.4844701787
 H          3.1878235874        1.8984650825        2.5020272082
 H          3.3819984186       -0.1459843909        3.6295243873
 H          2.7136919429       -2.5170480442        3.7751380627
 H          1.0760254570       -3.4428513726        2.1897150330
 H         -0.6947547020       -3.0172349511        0.6488471374
 C          0.5879480280       -2.7647931327       -1.0410475249
 C          1.1430819095       -4.1542669039       -0.9690902888
 C         -0.0288490828       -3.8602666792       -1.8558442464
 H          0.1138439595       -3.8465598672       -2.9256804759
 H         -1.0017795576       -4.2189308736       -1.5521347405
 H          2.0999536351       -4.3483731228       -1.4280211610
 H          0.9611208459       -4.7259505275       -0.0722052710
 H          1.1652255282       -2.0194214199       -1.5716707855
