  62
        -98.93688032
 C          2.1534292953       -0.9796919161        0.0359712126
 C          2.8840095163       -0.2900461955       -0.9591674348
 C          3.7194590424        0.8270422343       -0.4935926057
 C          3.7165949683        1.1451189878        0.8141118564
 C          4.5704742508        2.2020858201        1.4550726985
 C          6.0127038716        1.6824034990        1.6227658586
 C          7.0532058378        2.4293628603        0.7880789657
 H          7.2560912720        3.3954089443        1.2550436860
 H          7.9767606791        1.8475145121        0.8199754635
 C          6.6768497503        2.6866354404       -0.6742756991
 H          6.0038911778        3.5432906584       -0.7354096183
 H          7.5939122251        2.9744295677       -1.1927231270
 C          6.0393650688        1.5076615374       -1.4207722102
 H          6.3250526223        0.5611583050       -0.9613639843
 H          6.4326730538        1.4978726476       -2.4393856115
 C          4.5048727918        1.5756882581       -1.5349545039
 H          4.1860541472        2.6218827611       -1.5522654704
 H          4.2052829766        1.1268651910       -2.4869316525
 H          6.3038275554        1.7501613957        2.6719747181
 H          6.0269757764        0.6223866648        1.3608424177
 H          4.5567621120        3.1048293688        0.8483095311
 H          4.1322055329        2.4275632534        2.4274089469
 O          2.9752178304        0.4779433403        1.7360817340
 C          2.1763082802       -0.5982988251        1.3774306730
 O          1.5507703534       -1.1120997399        2.3224214970
 H         -0.0539655917        0.0999618999       -0.8308657030
 C         -0.6939302298       -0.6362845073       -0.3586895352
 C         -0.1646339253       -1.8789681149       -0.0314395221
 C         -1.0022451895       -2.8180019515        0.5554785080
 C         -2.3241903956       -2.5072115866        0.8250800032
 C         -2.8398073068       -1.2625824658        0.5157863620
 C         -2.0153237237       -0.3199676005       -0.0850548030
 N         -2.5274652034        0.9524878479       -0.3969589067
 S         -3.9406285248        1.0324672000       -1.3022478361
 O         -4.0825028786       -0.1194269630       -2.1625031780
 O         -3.8974588836        2.3221851663       -1.9565202995
 C         -5.2348267018        1.0458006164       -0.0799527231
 C         -6.2338204543        0.0931411406       -0.1237125265
 C         -7.2370575063        0.1302969832        0.8322977653
 C         -7.2237007749        1.1143064260        1.8088993625
 C         -6.2142219143        2.0651449268        1.8374690389
 C         -5.2091414169        2.0344637854        0.8840902976
 H         -4.4094209973        2.7561357385        0.8688523794
 H         -6.2068833035        2.8287582519        2.5985200844
 H         -8.0047080824        1.1410445483        2.5522680507
 H         -8.0228833420       -0.6075295548        0.8116640754
 H         -6.1997962643       -0.6557652072       -0.8987911991
 H         -1.8350844040        1.5850947499       -0.7712532407
 H         -3.8661014632       -1.0147441739        0.7318908850
 H         -2.9611364049       -3.2453035061        1.2880156150
 H         -0.6195104189       -3.7934303681        0.8064912474
 C          1.2808103966       -2.1527895339       -0.3695653368
 H          1.3642255497       -2.2142171159       -1.4655566569
 C          1.8121616181       -3.4377062757        0.2306441806
 C          1.6178789500       -4.7427189223       -0.4801936561
 C          2.9765700891       -4.1134644614       -0.4273085441
 H          3.7325032725       -4.5642495360        0.1979728124
 H          3.3677663034       -3.6610639238       -1.3271318157
 H          1.4432054877       -5.6301514711        0.1091738838
 H          1.0885790889       -4.7257551035       -1.4210014043
 H          1.7834362240       -3.4322790872        1.3144296428
 O          2.8332812304       -0.5900977274       -2.1840732313
