  62
        -98.94007947
 C         -2.2436542671       -1.0838071884       -0.4400385598
 C         -3.5376501724       -0.9834331125        0.1317877178
 C         -4.3476700540        0.1603371575       -0.2981413112
 C         -3.8494505616        1.0275726855       -1.1977347911
 C         -4.5563156643        2.2368787427       -1.7475507297
 C         -4.4441721590        3.4811877464       -0.8559350721
 C         -5.2745851103        3.4380639257        0.4274802872
 H         -5.2750430069        4.4480701225        0.8420120013
 H         -6.3065979650        3.1859140812        0.1819799746
 C         -4.7447599767        2.4678842906        1.4927275047
 H         -3.7083397801        2.2063794632        1.2649414704
 H         -4.7417720119        2.9628856318        2.4664890704
 C         -5.5589970493        1.1824387735        1.6407187287
 H         -6.5624529673        1.4236139047        1.9980590886
 H         -5.0739773043        0.5556965553        2.3932014906
 C         -5.6841402887        0.3614032039        0.3505192954
 H         -6.0802149421       -0.6238464580        0.6076620548
 H         -6.3727832219        0.8472239289       -0.3400580579
 H         -3.3918046026        3.6361057453       -0.6056140081
 H         -4.7739866824        4.3375170271       -1.4487911467
 H         -4.0885296855        2.4589321997       -2.7091101007
 H         -5.6073788909        2.0019065958       -1.9172704989
 O         -2.6111490164        0.8865421216       -1.7406583944
 C         -1.7660656443       -0.1490263475       -1.3592847418
 O         -0.6551375757       -0.1212520672       -1.9225853871
 H          1.2675533245       -1.4501210621       -0.4294511734
 C          0.9507636774       -1.3066912425        0.5899617034
 C         -0.3332345782       -1.6509727911        0.9853474144
 C         -0.7155218134       -1.4174979088        2.3047067448
 C          0.1655841347       -0.8524509820        3.2057722828
 C          1.4435167396       -0.5030275897        2.8064727882
 C          1.8355197232       -0.7307221676        1.4924772435
 N          3.1442166700       -0.4133415571        1.0812841638
 S          3.3596149476        0.3357116632       -0.4206087670
 O          2.4948592299        1.4896736792       -0.5257503888
 O          3.2691793381       -0.6584525764       -1.4581386411
 C          5.0575331439        0.8612189052       -0.2533069807
 C          6.0598606066       -0.0731939315       -0.4333665917
 C          7.3791861606        0.3200796800       -0.2753575661
 C          7.6736453747        1.6338523207        0.0583267861
 C          6.6577146567        2.5611688718        0.2334525102
 C          5.3358915339        2.1735016328        0.0783453781
 H          4.5131408937        2.8605650759        0.1957466095
 H          6.8889365399        3.5826868152        0.4891321984
 H          8.7013204405        1.9377736306        0.1796726593
 H          8.1717436038       -0.3974546367       -0.4136080952
 H          5.7825448410       -1.0793350769       -0.7008498984
 H          3.6445984583        0.1038735961        1.7933089110
 H          2.1339445132       -0.0575131184        3.5069752015
 H         -0.1444927687       -0.6772383219        4.2249312963
 H         -1.7208530450       -1.6754833615        2.6071441474
 C         -1.3526507219       -2.2230489801        0.0299528013
 H         -2.0158558119       -2.8841991018        0.6057284240
 C         -0.7501471057       -3.0181435678       -1.1069246831
 C         -0.1923950439       -4.3801749978       -0.8247972385
 C         -1.4642935356       -4.2378855593       -1.6041275876
 H         -1.4483271089       -4.4461558341       -2.6634135085
 H         -2.3922436673       -4.5053670981       -1.1200146279
 H          0.7013603770       -4.6864988489       -1.3464508394
 H         -0.2578223306       -4.7439400954        0.1895505517
 H         -0.2436902647       -2.4070980170       -1.8439673327
 O         -3.9950135227       -1.8140990165        0.9613789271
