  62
        -98.93753911
 C         -1.9893574696       -0.9408878669        0.0402669826
 C         -2.2635467791        0.0600711820        0.9970505339
 C         -2.5785377375        1.4064230732        0.4844803449
 C         -2.5573065585        1.6117108490       -0.8457507738
 C         -2.8848028082        2.8787199568       -1.5890909907
 C         -4.3987736365        3.1469123161       -1.6635172972
 C         -5.1732409385        2.8534853799       -0.3805307746
 H         -6.2388951930        2.9393183633       -0.6084765047
 H         -4.9885633595        1.8206331577       -0.0791566750
 C         -4.8712422586        3.7853314125        0.7904502616
 H         -5.1392740531        4.8071043382        0.5121465128
 H         -5.5155894942        3.4861885126        1.6210246771
 C         -3.4244697702        3.7874573461        1.2853368295
 H         -3.4026155341        4.3408066644        2.2290032680
 H         -2.7793758519        4.3261480576        0.5965251936
 C         -2.8442154736        2.4075487361        1.5830095610
 H         -1.8844231327        2.5380315659        2.1000323753
 H         -3.4926589901        1.8941352025        2.3023950358
 H         -4.5517300758        4.1873614010       -1.9540028913
 H         -4.8118226138        2.5113901883       -2.4502658003
 H         -2.3575817820        3.7149845452       -1.1390610711
 H         -2.5019881038        2.7544024766       -2.6043425977
 O         -2.2682870614        0.6187309336       -1.7340356855
 C         -1.9637945484       -0.6659001319       -1.3258901841
 O         -1.7021444993       -1.4555857100       -2.2540811568
 H          0.4933367848       -0.7328864726        0.3225736187
 C          0.7381683766       -1.7464477047        0.0383368544
 C         -0.2494825983       -2.7228853359        0.0611234237
 C          0.0939366246       -4.0207249754       -0.2967543597
 C          1.3907240012       -4.3224191285       -0.6756236922
 C          2.3672750426       -3.3451139758       -0.7061618140
 C          2.0327568848       -2.0408242156       -0.3546671994
 N          2.9918312858       -1.0182025545       -0.4301410074
 S          2.7869131074        0.4242033349        0.4080529807
 O          2.5663951631        0.1682840272        1.8151514382
 O          1.7914118810        1.2230506265       -0.2636823695
 C          4.4006722776        1.1419639872        0.1641999938
 C          4.6858401385        1.7212494435       -1.0580070262
 C          5.9475089687        2.2541501904       -1.2689574056
 C          6.8982788845        2.1987767363       -0.2603142637
 C          6.5971976736        1.6160043730        0.9613736175
 C          5.3372589322        1.0800601914        1.1784543104
 H          5.0543330433        0.6239513747        2.1134721835
 H          7.3369955578        1.5770779799        1.7445126669
 H          7.8791282090        2.6150016368       -0.4271157556
 H          6.1838866125        2.7099704660       -2.2168790446
 H          3.9116064491        1.7477025601       -1.8073071234
 H          3.9446479419       -1.3522922131       -0.3991692555
 H          3.3758425136       -3.5807783322       -1.0087203940
 H          1.6439232937       -5.3349012645       -0.9511912724
 H         -0.6550017224       -4.7955312686       -0.2806272463
 C         -1.6393128386       -2.3388712261        0.5095069353
 H         -1.6368713539       -2.2863343159        1.6098206107
 C         -2.7024672210       -3.3254771833        0.0695161411
 C         -3.0526810094       -4.5037447568        0.9271238241
 C         -4.0073247275       -3.3555770995        0.8057925959
 H         -4.9162824239       -3.4930784307        0.2398026571
 H         -4.1135386916       -2.6861153358        1.6472150934
 H         -3.3101940964       -5.4341519169        0.4438041161
 H         -2.5204422382       -4.6200228622        1.8592129811
 H         -2.7321130042       -3.4452996856       -1.0077556483
 O         -2.2569045578       -0.1603042594        2.2411987758
