  62
        -98.94541971
 C         -2.3853897405       -0.4514824251        0.0495548820
 C         -2.4413390725        0.4767419460        1.1174013560
 C         -2.3741055454        1.8919841818        0.7410590077
 C         -2.2867551081        2.2329547538       -0.5576599843
 C         -2.2334580016        3.6344447281       -1.1010745450
 C         -0.8189332427        4.2284291833       -1.1234674606
 C         -0.2509289445        4.6092294139        0.2439252624
 H          0.6489950674        5.1997504017        0.0640756556
 H         -0.9618093560        5.2501557164        0.7664439870
 C          0.1155571743        3.4131147312        1.1337771379
 H          0.1934582255        2.5116241872        0.5205640149
 H          1.0990604753        3.5776705432        1.5794169877
 C         -0.8624191346        3.1556000578        2.2811773231
 H         -0.8480627386        4.0018818162        2.9715394026
 H         -0.5236594081        2.2718325736        2.8286686683
 C         -2.3118295311        2.9114408071        1.8379944387
 H         -2.7703480353        3.8467495259        1.5186108626
 H         -2.8710929721        2.5206720190        2.6916135363
 H         -0.8509595014        5.1271240398       -1.7433208133
 H         -0.1530323202        3.5091331763       -1.6035341189
 H         -2.6029867501        3.5848693860       -2.1274784026
 H         -2.8964067286        4.2791166494       -0.5238424477
 O         -2.2427784862        1.3116754497       -1.5547217341
 C         -2.2449566285       -0.0484672651       -1.2789154654
 O         -2.1250050901       -0.7711916913       -2.2851957264
 O         -2.5329862530        0.1369102865        2.3287192527
 C         -2.3779127819       -1.9350085606        0.3790920344
 C         -0.9949836067       -2.4677956504        0.0943268960
 C         -0.7159328476       -3.4359884837       -0.8594008301
 C          0.5922380870       -3.8278124023       -1.0932239474
 C          1.6412742916       -3.2769589067       -0.3805520854
 C          1.3718102698       -2.3075161691        0.5799668135
 C          0.0624387262       -1.9138340401        0.8081858962
 H         -0.1501123327       -1.1598688063        1.5557977683
 N          2.4170575985       -1.7530248027        1.3428703695
 S          3.7660789913       -1.0781376803        0.6305672767
 O          4.3764275000       -2.0488416132       -0.2416362762
 O          4.5745955535       -0.6039477582        1.7294473318
 C          3.2064074095        0.3183665052       -0.3315452587
 C          2.4312898002        0.1002242302       -1.4537476208
 C          2.0274101849        1.1902932002       -2.2089518851
 C          2.4115280290        2.4702045795       -1.8382753244
 C          3.1791047319        2.6732277540       -0.7018837493
 C          3.5769128745        1.5889135472        0.0628673179
 H          4.1781971977        1.6979503292        0.9509549187
 H          3.4701631871        3.6702638506       -0.4135082426
 H          2.1150236206        3.3136021937       -2.4420872771
 H          1.4134508810        1.0317627215       -3.0819609360
 H          2.1556413573       -0.9057719976       -1.7274104638
 H          2.0941737158       -1.1551608917        2.0900031915
 H          2.6623553648       -3.5702282503       -0.5623244131
 H          0.7981434370       -4.5778147948       -1.8420146324
 H         -1.5182130697       -3.8756781086       -1.4280969253
 H         -2.5452418742       -1.9920904961        1.4644360973
 C         -3.4900598589       -2.6794608043       -0.3243698782
 C         -3.9504312704       -4.0011519220        0.2115922897
 C         -4.8256791555       -2.7923266547        0.3450552149
 H         -5.7144533491       -2.7274808520       -0.2644469175
 H         -4.9339469860       -2.3438728716        1.3219486588
 H         -4.2405681425       -4.7697854725       -0.4884255693
 H         -3.4644042427       -4.3758375663        1.0998040302
 H         -3.4828977001       -2.5370572954       -1.3983107444
