  62
        -98.93679164
 C         -2.5999704509       -1.2618941479        0.2376670224
 C         -2.6527269186       -0.2667341148       -0.7638830539
 C         -3.8220440957        0.6367670371       -0.7423033171
 C         -4.7572598405        0.4662487327        0.2105304861
 C         -5.9998870997        1.2805729830        0.4551473093
 C         -5.7000985496        2.6328049135        1.1219802158
 C         -4.5109168416        3.3890830321        0.5356381778
 H         -4.3390939778        4.2708899313        1.1585226581
 H         -3.6182527511        2.7647073048        0.6060816079
 C         -4.6874571495        3.8626106093       -0.9051211377
 H         -5.5620413204        4.5143800258       -0.9635944706
 H         -3.8093191909        4.4617994069       -1.1589249453
 C         -4.8303085157        2.7618211392       -1.9583701537
 H         -4.6957917693        3.2297768261       -2.9380234604
 H         -5.8321815006        2.3409271705       -1.9536698442
 C         -3.7910979326        1.6492319669       -1.8619557602
 H         -3.8224605342        1.0626351626       -2.7882055997
 H         -2.7895154999        2.0936043435       -1.8379296608
 H         -6.5957788864        3.2532525054        1.0605653987
 H         -5.4889553579        2.4485984051        2.1782161525
 H         -6.5451202766        1.4188580000       -0.4736885546
 H         -6.6308767458        0.6944334934        1.1269624447
 O         -4.6604839031       -0.5092752284        1.1598048660
 C         -3.5955858779       -1.3847906585        1.2062813646
 O         -3.6446909624       -2.2136616464        2.1381249777
 H          0.8237772580       -1.9150595077       -1.2731170124
 C          0.8870098691       -1.3877594378       -0.3342900017
 C         -0.1631593804       -1.4491877127        0.5661617664
 C         -0.0506786359       -0.7544953171        1.7683645710
 C          1.0797584382       -0.0143596106        2.0539503021
 C          2.1213451746        0.0566397598        1.1443456725
 C          2.0210538353       -0.6333551271       -0.0550238800
 N          3.0632981386       -0.5500413925       -0.9909250907
 S          4.6463354504       -0.7390432525       -0.4777638388
 O          5.3765164490       -1.1558934059       -1.6550300571
 O          4.7308230316       -1.6115425483        0.6705570841
 C          5.1575295631        0.9075977074       -0.0322308872
 C          5.7440969317        1.1352164890        1.1972446835
 C          6.1486415332        2.4214260666        1.5194308142
 C          5.9616300119        3.4514665218        0.6105443887
 C          5.3731600282        3.2058059279       -0.6212092777
 C          4.9680750054        1.9221031303       -0.9500511026
 H          4.5085635861        1.6912464656       -1.8966687613
 H          5.2284597870        4.0095881322       -1.3251009839
 H          6.2757051667        4.4518549459        0.8635528919
 H          6.6063022103        2.6142553845        2.4764520361
 H          5.8629063438        0.3050273645        1.8752636886
 H          2.8878817784       -1.0487010496       -1.8506711241
 H          3.0044016463        0.6361843008        1.3584564232
 H          1.1518105241        0.5166947740        2.9910656154
 H         -0.8683501263       -0.8054907919        2.4750592606
 C         -1.4294142322       -2.2279633649        0.3041081140
 H         -1.6174821297       -2.8683332599        1.1775785965
 C         -1.3779213167       -3.0980873003       -0.9334747814
 C         -0.6338214902       -4.3983558728       -0.8979539033
 C         -2.1317307206       -4.3922882547       -0.9443578768
 H         -2.6209162898       -4.6962642835       -1.8576185454
 H         -2.6740473219       -4.6600822924       -0.0492025328
 H         -0.0948542719       -4.7113186618       -1.7796848392
 H         -0.1550496027       -4.6738228442        0.0298026618
 H         -1.3629819619       -2.5243313514       -1.8526791891
 O         -1.7664575975       -0.1249343667       -1.6472364637
