  62
        -98.93791755
 C         -1.7921298946       -0.6678709814       -0.2973390792
 C         -3.0771351772       -1.2530224068       -0.2476042808
 C         -4.1308990198       -0.4756806793        0.4282580059
 C         -3.8298423625        0.7260795186        0.9553160612
 C         -4.6760952061        1.7128794667        1.7324691526
 C         -6.1981607772        1.5981649420        1.7467372598
 C         -6.8728270054        1.8657198528        0.4018581622
 H         -6.7567561186        2.9250705246        0.1592643227
 H         -7.9409782771        1.6650151135        0.5102939384
 C         -6.3334003212        1.0610036607       -0.7780608333
 H         -5.2924692684        1.3337232576       -0.9631067395
 H         -6.9034644663        1.3473794505       -1.6660686758
 C         -6.4304286886       -0.4565729706       -0.6337680145
 H         -6.1691105796       -0.8959078156       -1.6003017000
 H         -7.4600576744       -0.7395525434       -0.4064144742
 C         -5.5042115032       -1.0826549012        0.4237162874
 H         -5.3718585171       -2.1393528125        0.1730266113
 H         -5.9479168778       -1.0370145268        1.4155909735
 H         -6.5595169731        2.3514026750        2.4523054005
 H         -6.5004902476        0.6313155235        2.1383412674
 H         -4.3963654325        2.7026951975        1.3579656733
 H         -4.3162447515        1.6626378177        2.7663066947
 O         -2.5688427748        1.2451498781        0.8908406685
 C         -1.5264712047        0.5780434206        0.2673907106
 O         -0.4431842162        1.1885765082        0.2854443610
 O         -3.3345416887       -2.3863583983       -0.7371544604
 C         -0.6665836730       -1.4124656846       -0.9896419982
 C          0.4961993810       -1.6212234820       -0.0512955648
 C          0.2500233235       -2.0101643494        1.2628600335
 C          1.2880143292       -2.1968183623        2.1553127581
 C          2.6005277276       -2.0143046987        1.7552841825
 C          2.8595696354       -1.6426672141        0.4439978405
 C          1.8131828718       -1.4517540788       -0.4515523282
 H          2.0355262923       -1.1604875306       -1.4665939516
 N          4.1992198347       -1.4702690270        0.0333753613
 S          5.0594316767       -0.1872437099        0.6816557231
 O          6.4024525665       -0.3150753973        0.1634679135
 O          4.9197618281       -0.2080658293        2.1145275061
 C          4.2945444769        1.2713034356       -0.0045312349
 C          4.9649053918        1.9926097156       -0.9735370689
 C          4.3388090488        3.0874859054       -1.5465672905
 C          3.0518622750        3.4289436059       -1.1571663222
 C          2.3898017470        2.6913456706       -0.1877561623
 C          3.0172987698        1.6043306780        0.3999443886
 H          2.5154601953        1.0185062914        1.1529955324
 H          1.3779289921        2.9239299595        0.1029997915
 H          2.5587405454        4.2736836769       -1.6125060436
 H          4.8504621693        3.6655770512       -2.2993979277
 H          5.9594603048        1.6838212538       -1.2526007557
 H          4.3117881975       -1.4648038549       -0.9713118897
 H          3.4212422152       -2.1367497073        2.4425732101
 H          1.0753855259       -2.4897817696        3.1726105205
 H         -0.7735666598       -2.1557812254        1.5808175086
 H         -1.0823307266       -2.3991636747       -1.2441838730
 C         -0.2854379828       -0.6996820200       -2.2714398015
 C          0.2196836291       -1.4735032334       -3.4518976246
 C         -1.1539332326       -0.8754830848       -3.4796244977
 H         -1.3345533338       -0.0215377183       -4.1150119234
 H         -2.0031994912       -1.5365079498       -3.3858140183
 H          0.9820012017       -1.0283017186       -4.0738507833
 H          0.3018894602       -2.5452934099       -3.3508739186
 H          0.1258974681        0.2874863180       -2.0896458833
