  62
        -98.94383582
 C         -1.8506177923       -1.1412080860       -0.4342079636
 C         -1.9029698403        0.0368992212        0.3498340875
 C         -3.2116588737        0.3506872711        0.9426308103
 C         -4.2485389934       -0.4811439085        0.7348502780
 C         -5.6443257035       -0.2537768461        1.2372017730
 C         -6.4874049124        0.5125468472        0.2083130529
 C         -5.8043946760        1.7652696252       -0.3404480523
 H         -4.9291083776        1.4674510833       -0.9221258717
 H         -6.5038698086        2.2394750442       -1.0323526413
 C         -5.3794571836        2.7787107701        0.7315117348
 H         -5.6636611724        3.7794064230        0.3990895698
 H         -5.9162456110        2.5824887038        1.6604306032
 C         -3.8759570529        2.8124226108        1.0122404743
 H         -3.6624386730        3.7008059737        1.6125807077
 H         -3.3312607830        2.9141752450        0.0704252581
 C         -3.3122040732        1.6025175386        1.7681132392
 H         -2.2890525342        1.8445657700        2.0708110112
 H         -3.9019158925        1.4248372066        2.6697923019
 H         -6.7020191626       -0.1551667107       -0.6294055831
 H         -7.4354178117        0.7867631244        0.6747936305
 H         -6.1065065151       -1.2252631440        1.4211427754
 H         -5.6028445466        0.2998353745        2.1733097868
 O         -4.1525942178       -1.6158907550       -0.0048740253
 C         -2.9590803755       -1.9678946672       -0.6145433349
 O         -3.0092863309       -3.0261345893       -1.2747237638
 H          2.1209304832       -1.1051093609       -1.4530472255
 C          1.8820294337       -1.4582995628       -0.4613623739
 C          0.5634654097       -1.7294304598       -0.1225961706
 C          0.2972377301       -2.2022815949        1.1584987066
 C          1.3124131198       -2.3623361022        2.0832517704
 C          2.6229073528       -2.0711919373        1.7472334157
 C          2.9044986878       -1.6267692450        0.4639949135
 N          4.2453447475       -1.3277390933        0.1254383185
 S          4.8398852326        0.1070148908        0.7603904561
 O          6.2054538091        0.2097600212        0.2982077937
 O          4.6417437376        0.0972577923        2.1861799663
 C          3.8432956667        1.3668491342       -0.0136763038
 C          2.5498045547        1.5565226974        0.4295510110
 C          1.7348460082        2.4527243114       -0.2441325548
 C          2.2283394637        3.1446101021       -1.3394272637
 C          3.5337714184        2.9502839571       -1.7670574117
 C          4.3479292302        2.0449244044       -1.1065673948
 H          5.3649316905        1.8544691406       -1.4099850619
 H          3.9137988644        3.4936337516       -2.6174278684
 H          1.5892170338        3.8380981934       -1.8636850995
 H          0.7136324987        2.5709569239        0.0814723792
 H          2.1849359896        1.0071134435        1.2821308344
 H          4.4132785794       -1.3327638752       -0.8718951324
 H          3.4243059534       -2.1674064179        2.4611436165
 H          1.0807734230       -2.7169003070        3.0764619486
 H         -0.7239203435       -2.4331976448        1.4299562886
 C         -0.5573507374       -1.5414124534       -1.1172517201
 H         -0.7548479078       -2.5132451835       -1.5941857992
 C         -0.2128068395       -0.5282149900       -2.1933108674
 C          0.4235422828       -0.9605800948       -3.4794127874
 C         -1.0094255108       -0.5227110463       -3.4619641450
 H         -1.2673131449        0.4263829370       -3.9070079853
 H         -1.7764195980       -1.2768219686       -3.5668205177
 H          1.1500603366       -0.3079340493       -3.9403740952
 H          0.6250909946       -2.0130941553       -3.6125950621
 H          0.0752014392        0.4312526191       -1.7786604207
 O         -0.9138588259        0.7868460860        0.5472733775
