  62
        -98.94227734
 C         -2.8668064898       -0.3310702991       -0.2387791601
 C         -2.1713977001       -0.6432628386        0.9565246202
 C         -1.6420499506       -2.0105855988        1.0359840811
 C         -1.9573811607       -2.9066833892        0.0830073916
 C         -1.4792237212       -4.3313087494        0.0159302825
 C         -0.1163557712       -4.4804986403       -0.6753290473
 C          1.0802504289       -3.9723594602        0.1305347926
 H          1.0697707286       -4.4303615596        1.1197164228
 H          1.9806515288       -4.3167910308       -0.3811577671
 C          1.1509464694       -2.4442891902        0.2739884017
 H          0.4982846596       -1.9782002704       -0.4693314687
 H          2.1685074695       -2.1039469306        0.0652427916
 C          0.7728328194       -1.9226901192        1.6617500013
 H          1.4855204092       -2.2997358990        2.3987458016
 H          0.8468983298       -0.8301212292        1.6573033507
 C         -0.6446228108       -2.3074306585        2.1141561914
 H         -0.6786623712       -3.3602366783        2.3930717820
 H         -0.9025401307       -1.7022719079        2.9864017110
 H         -0.1559856109       -3.9622256308       -1.6364063876
 H          0.0342503685       -5.5432278505       -0.8769336466
 H         -1.4317192915       -4.7536311389        1.0193323227
 H         -2.2218029613       -4.8848922295       -0.5623675273
 O         -2.7707066605       -2.6051570096       -0.9649592187
 C         -3.1736026800       -1.2969679996       -1.1949171095
 O         -3.7911163599       -1.1284560500       -2.2662282097
 H         -0.6927816995        0.4505021096       -1.1056074102
 C         -0.7601243692        1.4649692299       -0.7308297809
 C         -2.0039988490        1.9848830905       -0.3973320813
 C         -2.0639916587        3.2925073808        0.0680118779
 C         -0.9075492384        4.0385294205        0.2197818876
 C          0.3313224014        3.5006997299       -0.0764101819
 C          0.4023394910        2.1978268996       -0.5513678611
 N          1.6556450509        1.6230606190       -0.8517946807
 S          2.8386359208        1.7902881393        0.3483076194
 O          2.2915435305        1.4918708203        1.6512632795
 O          3.4359853013        3.0953068290        0.2016337787
 C          4.0092468404        0.5404624386       -0.1416104397
 C          4.6570526406        0.6858882877       -1.3541328397
 C          5.5573551604       -0.2894411728       -1.7517293790
 C          5.7943534799       -1.3861306824       -0.9354863484
 C          5.1403631297       -1.5150384615        0.2800810716
 C          4.2366041300       -0.5435964409        0.6836331009
 H          3.7052122198       -0.5988642902        1.6203143109
 H          5.3270105993       -2.3667133512        0.9141980322
 H          6.4956338897       -2.1437308328       -1.2476261678
 H          6.0708828105       -0.1919539836       -2.6945478590
 H          4.4477851410        1.5572847374       -1.9522119603
 H          1.5598732206        0.6457383689       -1.0968576401
 H          1.2412033416        4.0594071497        0.0728701879
 H         -0.9702879781        5.0507012407        0.5902855870
 H         -3.0171599286        3.7236143213        0.3281624175
 C         -3.2313561693        1.1108280108       -0.5336428510
 H         -3.5684546092        1.1385045803       -1.5806936910
 C         -4.3731401193        1.5612615717        0.3559654286
 C         -5.3990879889        2.5291825418       -0.1502333821
 C         -5.7591520794        1.0874460420        0.0407600988
 H         -6.4113601396        0.8192793927        0.8582411988
 H         -5.8793991595        0.4672693715       -0.8357915509
 H         -5.8087179187        3.2527473823        0.5385777775
 H         -5.2908928586        2.8920468912       -1.1612892723
 H         -4.0858665594        1.6147273523        1.4000976886
 O         -1.9729308199        0.1798358118        1.8866167398
