  62
        -98.94364931
 C          1.5740767492        1.4382034190        0.0622314799
 C          2.0657710357        0.4922295784        0.9939306672
 C          3.1037479828       -0.4159519164        0.4943067431
 C          3.5362065744       -0.3022893141       -0.7746335139
 C          4.5930591311       -1.1527522969       -1.4259563395
 C          4.0643742639       -2.4818700312       -1.9835402118
 C          3.6956398783       -3.5306455160       -0.9329030866
 H          3.5481629582       -4.4744303178       -1.4617888390
 H          4.5341481092       -3.6686058487       -0.2496773551
 C          2.4246522896       -3.2091178303       -0.1334276618
 H          1.7938720077       -4.0993447357       -0.0792471082
 H          1.8495828416       -2.4427942890       -0.6594077207
 C          2.6784395022       -2.7414504079        1.2999052171
 H          1.7158745121       -2.4927786919        1.7532012878
 H          3.1279336627       -3.5532877472        1.8754718292
 C          3.5796788313       -1.5047306492        1.4076387026
 H          3.5245045868       -1.1284023786        2.4318009246
 H          4.6133738342       -1.7676967442        1.1856398747
 H          4.8446136093       -2.8998712335       -2.6238587155
 H          3.1954542524       -2.2752199234       -2.6133174965
 H          4.9961852867       -0.5682586297       -2.2558028761
 H          5.3970948933       -1.3482068077       -0.7160334221
 O          3.0522840354        0.6345997241       -1.6338378139
 C          2.0402017995        1.5063151063       -1.2504645059
 O          1.6542046021        2.2720610105       -2.1537680599
 H         -0.3915021178        0.0493015939       -0.5392363547
 C         -1.1022923668        0.8483261426       -0.7138575545
 C         -0.8064169027        2.1305671164       -0.2699637191
 C         -1.7421088829        3.1335897577       -0.4968486507
 C         -2.9316174284        2.8586600920       -1.1498750299
 C         -3.2181133624        1.5796454483       -1.5924024934
 C         -2.2884943969        0.5731554709       -1.3766318982
 N         -2.5945514697       -0.7472030059       -1.7946830626
 S         -3.6084927437       -1.5579044632       -0.7311427759
 O         -3.6938145899       -2.9170077430       -1.2141273559
 O         -4.8456198595       -0.8271364305       -0.6399640175
 C         -2.7400108081       -1.5099540359        0.8251208991
 C         -1.9131038484       -2.5632050094        1.1607958221
 C         -1.1566574946       -2.4789698171        2.3184619967
 C         -1.2207180139       -1.3381526648        3.1036578406
 C         -2.0541247181       -0.2884063692        2.7507452776
 C         -2.8241193306       -0.3711161993        1.6017070986
 H         -3.4866198518        0.4234270819        1.2980151925
 H         -2.0975308082        0.5984113259        3.3622100300
 H         -0.6106960266       -1.2612294516        3.9895137073
 H         -0.5140195016       -3.2981021338        2.6004201312
 H         -1.8851060422       -3.4281836598        0.5169918571
 H         -1.7693741593       -1.3129142691       -1.9392884484
 H         -4.1455667507        1.3413310050       -2.0865262531
 H         -3.6455236615        3.6509288711       -1.3154367834
 H         -1.5388738652        4.1360712222       -0.1569732717
 C          0.4682143932        2.3755102178        0.5011310989
 H          0.2719619667        2.1132881824        1.5528324197
 C          0.9297427346        3.8179221003        0.4395424831
 C          0.4667539195        4.8119214776        1.4615365978
 C          1.8798573973        4.3152116508        1.4865414527
 H          2.6720509442        4.9852810803        1.1882605170
 H          2.1650978408        3.6221844596        2.2646221468
 H         -0.2022249758        4.4640329965        2.2341003011
 H          0.2889803977        5.8293202865        1.1467723110
 H          1.0830928402        4.1609688406       -0.5773746764
 O          1.6507947559        0.4072219143        2.1793979225
