  62
        -98.94112600
 C         -1.7261712002       -0.0845137295        0.2109767901
 C         -2.6921993301       -0.6735192600       -0.6434137797
 C         -3.9476394802        0.0767246198       -0.7939028300
 C         -4.1069814303        1.2578232400       -0.1708384205
 C         -5.3206384904        2.1440235499       -0.2464816109
 C         -6.4363233904        1.7566656601        0.7337669593
 C         -7.2043044203        0.4837683699        0.3752510297
 H         -8.0873272803        0.4509979600        1.0166699197
 H         -7.5536829802        0.5496355694       -0.6556360303
 C         -6.4063338701       -0.8134457900        0.5683895403
 H         -5.5428413201       -0.6188926596        1.2087904902
 H         -7.0270303400       -1.5492198298        1.0848499205
 C         -5.9231183000       -1.4604852404       -0.7296486395
 H         -5.3396731699       -2.3484485502       -0.4730555791
 H         -6.7833676400       -1.7822361407       -1.3209281294
 C         -5.0443724801       -0.5520081406       -1.5993382398
 H         -5.6535553502        0.2136081791       -2.0793614801
 H         -4.5778343700       -1.1663240909       -2.3734809496
 H         -6.0040600204        1.6522342005        1.7316852493
 H         -7.1459441405        2.5867393300        0.7645898589
 H         -5.7127331904        2.1443607994       -1.2638826209
 H         -4.9838173906        3.1539356600       -0.0027624213
 O         -3.1397504604        1.8079492504        0.6106789193
 C         -1.9455535303        1.1441939307        0.8371243996
 O         -1.1640541004        1.7448713111        1.6030919794
 O         -2.5279412700       -1.7573589802       -1.2605794693
 C         -0.4109391301       -0.7666190793        0.5235413303
 C          0.6043973199       -0.7014711296       -0.5959854097
 C          0.3099240699       -0.2250683901       -1.8662957699
 C          1.2876144699       -0.1826344404       -2.8454947099
 C          2.5832700599       -0.5793084601       -2.5703885097
 C          2.8929820700       -1.0464845596       -1.2984444395
 C          1.9023218899       -1.1202319593       -0.3315138995
 H          2.1622880500       -1.5030946089        0.6416202107
 N          4.2038137000       -1.4295113993       -0.9623591393
 S          4.8695227699       -0.7927666687        0.4387263404
 O          6.2963155799       -0.9578016886        0.2757590205
 O          4.2840116500       -1.4229719983        1.5933471707
 C          4.4333732897        0.9354115713        0.3745428698
 C          3.3024170596        1.3838722014        1.0260745396
 C          2.9200205595        2.7074774413        0.8751797190
 C          3.6776138894        3.5579722211        0.0850629787
 C          4.8200691095        3.0967890309       -0.5523381411
 C          5.1983004096        1.7714651010       -0.4158212006
 H          6.0797784697        1.3745764710       -0.8929800704
 H          5.4101621694        3.7643584908       -1.1593841813
 H          3.3747437793        4.5866583010       -0.0313789117
 H          2.0245652994        3.0566651014        1.3657981789
 H          2.7372181397        0.7040663815        1.6418881798
 H          4.8607237400       -1.3631739595       -1.7269022093
 H          3.3468413599       -0.5294217903       -3.3313748097
 H          1.0377799198        0.1793032592       -3.8312899300
 H         -0.6925926102        0.1064663597       -2.0908268400
 H          0.0140674798       -0.2158580189        1.3762017901
 C         -0.6291993799       -2.2090036491        0.9508112709
 C          0.1811552001       -2.8160906886        2.0541521411
 C         -1.2639690099       -2.4894337087        2.2790144010
 H         -1.9768406798       -3.2968576487        2.3514484713
 H         -1.5015351800       -1.6403201985        2.9043621907
 H          0.4679127102       -3.8532344086        1.9678182615
 H          0.9189609000       -2.2015423383        2.5490586209
 H         -0.9141320599       -2.8493660695        0.1249193111
