  62
        -98.93333290
 C          1.7166920598        0.5156977404        0.8517356109
 C          2.8796839799        1.0708356007        0.2687801214
 C          4.0482559500        0.1740421409        0.1211181714
 C          3.9398806900       -1.1121851493        0.4992345709
 C          4.9677822402       -2.2090158491        0.4081717308
 C          5.1469357506       -2.7415267386       -1.0218350393
 C          5.2465471608       -1.6647601282       -2.0987316289
 H          5.2779699811       -2.1674695579       -3.0690900291
 H          4.3416563407       -1.0546757383       -2.0803954990
 C          6.4723179307       -0.7595766082       -2.0009935083
 H          7.3752746107       -1.3731612481       -2.0365546583
 H          6.4726301109       -0.1186186879       -2.8864683681
 C          6.5419038203        0.1415693014       -0.7656336080
 H          6.8777842901       -0.4106028988        0.1080861719
 H          7.3028531802        0.9027732916       -0.9614583075
 C          5.2496174101        0.8880257612       -0.4509278681
 H          5.4760325498        1.6926739210        0.2591632923
 H          4.9002665803        1.3969259515       -1.3567212680
 H          4.2863575507       -3.3718509686       -1.2593668698
 H          6.0402924007       -3.3680199185       -1.0466000093
 H          5.9156305800       -1.8686855292        0.8144472012
 H          4.6096416301       -3.0251497694        1.0397612604
 O          2.7829516400       -1.6167895895        1.0152726204
 C          1.6656897998       -0.8331044597        1.2137307404
 O          0.6978569598       -1.4388018800        1.7149454699
 H         -2.2415918703        1.2367042699        1.1062033000
 C         -1.8379131601        1.3420531303        0.1085176502
 C         -0.4617343300        1.3946913205       -0.0716855694
 C          0.0322107203        1.5252630010       -1.3638355993
 C         -0.8272319994        1.5767329413       -2.4473924395
 C         -2.1966804395        1.5097313011       -2.2647234298
 C         -2.7025334598        1.4002269806       -0.9770218700
 N         -4.1040926098        1.3248248004       -0.8047566504
 S         -4.8105262096       -0.1438298295       -1.2032113211
 O         -4.3231179592       -0.5517626590       -2.4945791911
 O         -6.2365332296        0.0493400303       -1.0788278614
 C         -4.2407862598       -1.2502631999        0.0746243487
 C         -5.0897245801       -1.5692143903        1.1163943483
 C         -4.6048924303       -2.3360510106        2.1635289082
 C         -3.2785488602       -2.7417278505        2.1647884384
 C         -2.4353094600       -2.4083743501        1.1152908188
 C         -2.9224253198       -1.6624465298        0.0531256889
 H         -2.2941508496       -1.3942970494       -0.7814600609
 H         -1.3937295400       -2.6885320800        1.1366890289
 H         -2.8914261604       -3.3180864408        2.9903157283
 H         -5.2558242305       -2.6027605410        2.9807333679
 H         -6.1074645301       -1.2150056104        1.0818277282
 H         -4.4098973701        1.5943823101        0.1204873196
 H         -2.8790753893        1.5260117213       -3.0984588300
 H         -0.4247601792        1.6697079617       -3.4448591993
 H          1.0980815203        1.5914801012       -1.5166165589
 C          0.4526420396        1.3105594102        1.1293448508
 H         -0.0823953705        0.7499683999        1.9089078005
 C          0.7336007094        2.7069532300        1.6547959713
 C         -0.2387260109        3.3589900596        2.5884932713
 C          1.0911729590        2.8910385696        3.0975383015
 H          1.8401625888        3.6255967296        3.3518172719
 H          1.1162813489        2.0091548094        3.7215101012
 H         -0.4090198010        4.4202857897        2.4926517716
 H         -1.1133176610        2.7987378795        2.8821202209
 H          1.2408814395        3.3354423603        0.9346107917
 O          2.9720809999        2.2613176409       -0.1334201882
