  62
        -98.94855114
 C         -1.5620227570       -1.1065947498        0.8478775396
 C         -2.5402417061       -0.5493167654       -0.0105181294
 C         -2.9766236448        0.8130118474        0.3173549115
 C         -2.4284611211        1.4608379086        1.3604749101
 C         -2.7477871147        2.8634965860        1.8000897377
 C         -1.9826344163        3.9365851980        1.0128944828
 C         -2.4847675544        4.1796082919       -0.4111006891
 H         -3.5658914050        4.3253639122       -0.3980000046
 H         -2.0325310888        5.1126459124       -0.7536726363
 C         -2.1214984566        3.0676543536       -1.4054599611
 H         -1.3017168012        2.4691131491       -0.9999075542
 H         -1.7509852359        3.5168854895       -2.3307357999
 C         -3.2820936738        2.1471363031       -1.7846662172
 H         -2.8942670131        1.3647434912       -2.4424224802
 H         -4.0326025518        2.7152426514       -2.3401176670
 C         -3.9702428046        1.4662971395       -0.5952133742
 H         -4.5737661036        2.1885629928       -0.0457549007
 H         -4.6263727598        0.6837446889       -0.9850827686
 H         -2.0628575139        4.8728488027        1.5707541584
 H         -0.9266311359        3.6563088877        0.9748973857
 H         -3.8203771515        3.0428732202        1.7187919954
 H         -2.4605935855        2.9352343565        2.8514226577
 O         -1.4974085080        0.8888317821        2.1672208704
 C         -1.0171638063       -0.3841278605        1.9085845763
 O         -0.1210209447       -0.7605673737        2.6934057568
 O         -3.0292436931       -1.1514539410       -1.0022795078
 C         -0.9478179667       -2.4620390905        0.5292901867
 C         -0.2181527106       -2.3023568195       -0.7837387908
 C         -0.4932339858       -3.0283264844       -1.9330111923
 C          0.1490200334       -2.7146341412       -3.1199732559
 C          1.0512694930       -1.6695928809       -3.1884282644
 C          1.3491939748       -0.9497973493       -2.0343207300
 C          0.7419984009       -1.2986077378       -0.8415974011
 H          0.9682772639       -0.7424441594        0.0544661026
 N          2.2634992514        0.1095102260       -2.0613515096
 S          2.2630294258        1.3396108676       -0.9278301170
 O          0.9437723470        1.6328692699       -0.4216321121
 O          2.9405921898        2.4289698514       -1.6009062194
 C          3.3351163509        0.7117429095        0.3470551669
 C          2.8656981863        0.4630820047        1.6198354971
 C          3.7434151835       -0.0346996817        2.5715791469
 C          5.0674848807       -0.2693710798        2.2377360356
 C          5.5261393807       -0.0083516612        0.9545831984
 C          4.6538716409        0.4856476394       -0.0002101915
 H          4.9691542445        0.7103499498       -1.0054560595
 H          6.5572517856       -0.1904673430        0.6979441253
 H          5.7443404146       -0.6571886701        2.9826447587
 H          3.3758876417       -0.2402511869        3.5643493084
 H          1.8277620482        0.6413762758        1.8578271680
 H          2.5476378926        0.4198685635       -2.9777190743
 H          1.5187021321       -1.4049345515       -4.1245550131
 H         -0.0771720546       -3.2781148185       -4.0126719070
 H         -1.2237372648       -3.8199136419       -1.9083279993
 H         -0.2065759869       -2.6562045368        1.3175047188
 C         -1.9806851598       -3.5659906239        0.5391500812
 C         -1.5500470823       -4.9854885181        0.7515277760
 C         -2.2926235861       -4.2580514842        1.8307166132
 H         -3.3164414976       -4.5353459806        2.0319001704
 H         -1.7457593159       -3.9440197335        2.7080026186
 H         -2.0650323354       -5.7667979383        0.2135546987
 H         -0.4967632192       -5.1707127128        0.8982687341
 H         -2.8054515006       -3.3749659551       -0.1365960399
