  62
        -98.93763109
 C         -1.5982888218       -0.5139721540       -0.3877206243
 C         -2.8575703781       -1.0565036685       -0.7266657626
 C         -4.0234606209       -0.5656288455        0.0337935751
 C         -3.8230368659        0.3404512751        1.0091058449
 C         -4.8510248017        1.0059451397        1.8850453962
 C         -5.6313620628        2.1082686013        1.1502100962
 C         -6.0793711231        1.7464810379       -0.2635129919
 H         -6.5146003252        2.6426645644       -0.7136409113
 H         -5.2050386525        1.4773722838       -0.8589208671
 C         -7.1169495196        0.6299114888       -0.3518139717
 H         -8.0074110975        0.9229116859        0.2090480396
 H         -7.4032843519        0.5351267276       -1.4024759662
 C         -6.6635664415       -0.7453173979        0.1421618906
 H         -7.4051592514       -1.4739412386       -0.1985805778
 H         -6.6632935549       -0.7913526021        1.2278604486
 C         -5.3171536118       -1.2081501286       -0.4058757302
 H         -5.2031847225       -2.2776504893       -0.1901472333
 H         -5.3320236531       -1.1369488412       -1.4995185321
 H         -6.5009009109        2.3758162422        1.7528903905
 H         -4.9863396572        2.9873069539        1.0790186542
 H         -5.5260852313        0.2627365683        2.2988466618
 H         -4.3072446653        1.4604334874        2.7160290544
 O         -2.5846593309        0.8246654996        1.3115775315
 C         -1.4471315044        0.4205400085        0.6363138046
 O         -0.3944030264        0.9534394171        1.0323798696
 H          2.2496072110       -0.3483472311       -0.5509484956
 C          1.8786973319       -1.1774521787        0.0244600531
 C          0.5872024143       -1.6361762768       -0.1716182822
 C          0.1440643791       -2.7253878334        0.5754260013
 C          0.9732312337       -3.3284771530        1.5003944399
 C          2.2585558552       -2.8566413933        1.7050673605
 C          2.7106541217       -1.7707195425        0.9649756037
 N          3.9842476658       -1.2425471987        1.1879012344
 S          4.7970949073       -0.3018774585        0.0839250893
 O          4.7395510811       -0.8628958946       -1.2462606182
 O          6.1232684168       -0.1673190519        0.6485390746
 C          3.9719479957        1.2751320611        0.1217795169
 C          3.5836400438        1.8004561468        1.3372267890
 C          2.9455183731        3.0296443181        1.3605082913
 C          2.7110587406        3.7104834949        0.1762369176
 C          3.1135573681        3.1728154273       -1.0363207238
 C          3.7516752054        1.9437035566       -1.0659393851
 H          4.0710311084        1.4815877177       -1.9870008373
 H          2.9273523375        3.7031836263       -1.9568241420
 H          2.2065631537        4.6637309527        0.1978420723
 H          2.6238725645        3.4482768242        2.3003664344
 H          3.7717662927        1.2426565736        2.2394107754
 H          4.5838191275       -1.7496499731        1.8192490096
 H          2.9032561714       -3.3199545685        2.4361218839
 H          0.6174053139       -4.1728887055        2.0715753118
 H         -0.8635836269       -3.0875598071        0.4226077953
 C         -0.3659763295       -0.9826703556       -1.1404538028
 H         -0.7242427830       -1.7492957766       -1.8430103168
 C          0.2455625587        0.1568744002       -1.9271482727
 C          1.1079254982       -0.1339554792       -3.1174862875
 C         -0.2605875864        0.4460611598       -3.3072066332
 H         -0.3462491407        1.4759762274       -3.6190960941
 H         -1.0386109714       -0.1944043409       -3.6963869532
 H          1.9660696399        0.4946157359       -3.3000888601
 H          1.2647651027       -1.1695518955       -3.3791413262
 H          0.5052679740        1.0052032318       -1.3031545463
 O         -3.0118027606       -1.9202590450       -1.6333029623
