  62
        -98.94031176
 C          2.4515059916        1.1689287952        0.0775965902
 C          3.3520318445        0.4619635067        0.9142406816
 C          4.1504808835       -0.5854892642        0.2685971792
 C          3.9888151431       -0.8318684954       -1.0439957664
 C          4.7417656114       -1.8524554205       -1.8535690386
 C          4.1553259266       -3.2685115479       -1.7716684374
 C          4.3784775631       -3.9891260506       -0.4414162750
 H          4.1114383491       -5.0365366629       -0.5951456586
 H          5.4378444474       -3.9576410587       -0.1851286911
 C          3.5487684832       -3.4356764179        0.7257416932
 H          2.7310305571       -2.8256227403        0.3339424148
 H          3.0939682276       -4.2633728974        1.2750054377
 C          4.3458024027       -2.6072812224        1.7338230481
 H          5.0826454136       -3.2433061224        2.2292425006
 H          3.6551988747       -2.2371178905        2.4963523143
 C          5.0716809462       -1.3995539023        1.1262355349
 H          5.4179769707       -0.7618028662        1.9432840357
 H          5.9354038212       -1.7306336069        0.5500631580
 H          4.6210451584       -3.8603337157       -2.5629107796
 H          3.0846463672       -3.2157191258       -1.9825328423
 H          5.7860949980       -1.8707495000       -1.5408023808
 H          4.6947304405       -1.5205106638       -2.8929156677
 O          3.0992719009       -0.1480176869       -1.8091861760
 C          2.2873845784        0.8442665090       -1.2703743852
 O          1.4891144704        1.3359973098       -2.0877336301
 O          3.4769728088        0.6916352846        2.1474828459
 C          1.5850810249        2.2366399832        0.7207867308
 C          0.1385391974        2.0251384876        0.3473994707
 C         -0.6590963695        2.9953635541       -0.2429317401
 C         -1.9805133546        2.7215912782       -0.5519291566
 C         -2.5327255801        1.4829295028       -0.2854859802
 C         -1.7456376879        0.5051563496        0.3096913362
 C         -0.4271726303        0.7870364108        0.6300263009
 H          0.1862159620        0.0240284377        1.0957041300
 N         -2.2878410744       -0.7663774995        0.5635140359
 S         -3.7738178768       -0.8720974906        1.3352687050
 O         -3.9920092675        0.2489687805        2.2199402336
 O         -3.7867238766       -2.1837065456        1.9459626287
 C         -4.9550964639       -0.8405820756        0.0040325666
 C         -4.8116033060       -1.7607415867       -1.0157951284
 C         -5.7283987143       -1.7560584633       -2.0547753444
 C         -6.7693305535       -0.8393628818       -2.0543142897
 C         -6.9017296751        0.0754603844       -1.0210164267
 C         -5.9871369414        0.0770226658        0.0207419428
 H         -6.0463659843        0.7733928606        0.8419816075
 H         -7.7115123542        0.7871932709       -1.0226879890
 H         -7.4812080477       -0.8380968978       -2.8645493821
 H         -5.6279895619       -2.4656688463       -2.8602541085
 H         -3.9903329228       -2.4570161703       -0.9781110935
 H         -1.6294727000       -1.4194622957        0.9622462092
 H         -3.5583918653        1.2650944513       -0.5344068440
 H         -2.5874686533        3.4835665113       -1.0166122610
 H         -0.2423332027        3.9598414609       -0.4811525595
 H          1.6800572070        2.0440897313        1.8035803346
 C          2.0691935132        3.6614086390        0.4981469731
 C          3.5116654574        3.9521804229        0.2130588046
 C          2.4792176938        4.1718337023       -0.8495811608
 H          2.2238002534        5.1885975412       -1.1102594166
 H          2.4353908769        3.4836121386       -1.6785052961
 H          3.9632639922        4.8137892358        0.6815957811
 H          4.1813756176        3.1106187832        0.1093258677
 H          1.5609743982        4.3654023382        1.1502888540
