  62
        -98.93659905
 C         -1.7415399420       -1.1716989372        0.3512353748
 C         -2.0799961179       -0.1150508507       -0.5267854223
 C         -3.5128409351        0.0346246120       -0.8318451720
 C         -4.3943561780       -0.8234670834       -0.2868502264
 C         -5.8876475997       -0.7526478444       -0.4368009632
 C         -6.4562788040        0.3522557709        0.4764264638
 C         -7.0912461541        1.5241016665       -0.2722753588
 H         -8.0670174590        1.2154090172       -0.6530566556
 H         -7.2582403719        2.3235632092        0.4527160754
 C         -6.2839713597        2.0797804100       -1.4495251048
 H         -6.4205339244        1.4406227486       -2.3230823202
 H         -6.7175049309        3.0495428146       -1.7030489625
 C         -4.7800857178        2.2621857648       -1.2063482424
 H         -4.5719669570        2.3772591575       -0.1422969000
 H         -4.4668967350        3.1888884385       -1.6918905847
 C         -3.8967373470        1.1377328908       -1.7788186836
 H         -4.3775335693        0.7103356621       -2.6633337422
 H         -2.9448538558        1.5717784218       -2.1001868687
 H         -7.2078622684       -0.0758053330        1.1413726430
 H         -5.6480289626        0.7207495733        1.1116157007
 H         -6.1439922671       -0.5603077956       -1.4761825660
 H         -6.2892058172       -1.7251593669       -0.1516295099
 O         -4.0269679928       -1.8311715877        0.5469115120
 C         -2.6995991190       -2.0298884339        0.8894799772
 O         -2.5050912054       -2.9834139060        1.6698612305
 H          2.1073432582       -0.1584349811        0.1550035067
 C          1.5450601924        0.3341229383        0.9301770620
 C          0.3112916187       -0.1608210653        1.3232522320
 C         -0.3833272722        0.5031764468        2.3315454578
 C          0.1328236125        1.6449051477        2.9115464966
 C          1.3545311958        2.1485229125        2.5004590465
 C          2.0631852253        1.4874736273        1.5050702883
 N          3.3264592638        1.9474790429        1.1107789868
 S          3.8629970694        1.8142399968       -0.4670132957
 O          4.9725724245        2.7431287327       -0.5370059515
 O          2.8078675114        2.0192529690       -1.4299632427
 C          4.5040035333        0.1575742567       -0.5876864940
 C          5.2459526923       -0.3523403628        0.4594746054
 C          5.7835987779       -1.6239326306        0.3411143961
 C          5.5804826305       -2.3568875032       -0.8183286770
 C          4.8368830542       -1.8288378774       -1.8626058199
 C          4.2919249773       -0.5590639278       -1.7484903402
 H          3.6956034318       -0.1147280098       -2.5300027369
 H          4.6788946723       -2.3993024149       -2.7643921525
 H          6.0008704978       -3.3459702687       -0.9091463023
 H          6.3605088315       -2.0393190627        1.1515293467
 H          5.3855230403        0.2460673771        1.3439842318
 H          3.6143138400        2.8192747476        1.5303129067
 H          1.7560870000        3.0457464188        2.9464776255
 H         -0.4216220540        2.1523636119        3.6868056949
 H         -1.3413054660        0.1125662254        2.6481697288
 C         -0.2903129738       -1.4099443412        0.7275977824
 H         -0.3059410983       -2.1846434919        1.5086959808
 C          0.4783555266       -1.9421082282       -0.4640647859
 C          1.6345022883       -2.8723010034       -0.2555138252
 C          0.3459652956       -3.3922540205       -0.8164176070
 H          0.3085069013       -3.6673706464       -1.8597016537
 H         -0.2850114247       -3.9980592662       -0.1822143254
 H          2.4867390370       -2.7922710563       -0.9130513885
 H          1.8852172530       -3.1339635929        0.7612040055
 H          0.5293563742       -1.2293974640       -1.2801704798
 O         -1.2307624180        0.6653555626       -1.0321687246
