  62
        -98.94504978
 C         -0.8556200903       -1.1108859394        0.2490827099
 C         -1.5857640304       -0.3939855389        1.2306430995
 C         -2.4727688903        0.6623273809        0.7304927489
 C         -2.4970271501        0.9433058503       -0.5843789212
 C         -3.3797747900        1.9587441000       -1.2582440018
 C         -4.7937015799        1.4434575500       -1.5631587318
 C         -5.7130174401        1.2946944006       -0.3500871418
 H         -5.7144158401        2.2235513408        0.2211483878
 H         -6.7250525001        1.1465803404       -0.7321154419
 C         -5.3608631603        0.1207384110        0.5742966488
 H         -6.2705477304       -0.4263871489        0.8320523489
 H         -4.7085083803       -0.5774723393        0.0443694992
 C         -4.6895889405        0.5265564115        1.8866413387
 H         -4.4501876506       -0.3819691382        2.4457083491
 H         -5.3851030105        1.1165316619        2.4877418683
 C         -3.3933414304        1.3279495214        1.7081782485
 H         -3.6219573703        2.3439911512        1.3870552280
 H         -2.8807752205        1.3713408518        2.6725876585
 H         -4.7124741499        0.4830565897       -2.0773486213
 H         -5.2556784398        2.1519207097       -2.2545667822
 H         -2.8992506798        2.2094060295       -2.2054129819
 H         -3.4454785600        2.8595790903       -0.6478432222
 O         -1.6839392500        0.3213035898       -1.4755426608
 C         -0.8512364201       -0.7234746201       -1.0922431502
 O         -0.1804780700       -1.1946971305       -2.0274080099
 O         -1.5114956906       -0.6347311784        2.4656017896
 C         -0.0256220705       -2.2935601593        0.7142853806
 C          1.3502844596       -2.2466377696        0.1040747808
 C          1.8218346397       -3.1809177801       -0.8084896287
 C          3.0897150798       -3.0514574704       -1.3465107586
 C          3.9067297898       -1.9939830703       -0.9924007590
 C          3.4457357797       -1.0575348798       -0.0732925695
 C          2.1800486496       -1.1948445295        0.4724067504
 H          1.8309174696       -0.4725322492        1.1964376800
 N          4.2576053497        0.0155552403        0.3162544601
 S          3.6213790697        1.4170629206        0.9397243694
 O          4.6848649898        2.3871329505        0.7807938791
 O          3.1739665895        1.2039319913        2.2939805094
 C          2.2467228099        1.8970536402       -0.0915850110
 C          1.1147518998        2.4041389706        0.5128986986
 C          0.0856800600        2.8836964603       -0.2802756918
 C          0.2019737501        2.8376772796       -1.6603182617
 C          1.3358766602        2.3065447293       -2.2534498513
 C          2.3735842901        1.8381947696       -1.4646146610
 H          3.2699039001        1.4319741193       -1.9041785907
 H          1.4142670203        2.2567411688       -3.3274491713
 H         -0.5974330898        3.2157419894       -2.2773447820
 H         -0.8005619901        3.2868965005        0.1830742579
 H          1.0580244597        2.4109903811        1.5903475386
 H          5.0904120798        0.1647033100       -0.2323431398
 H          4.8919690498       -1.8892616605       -1.4200233289
 H          3.4431270798       -3.7789101007       -2.0613744682
 H          1.1866996097       -3.9938870902       -1.1188639284
 H          0.0834099994       -2.1421137888        1.8015830305
 C         -0.7189266405       -3.6361770793        0.5286831411
 C         -2.2099424805       -3.7510458792        0.6286565810
 C         -1.5292377004       -3.9618588998       -0.6887502788
 H         -1.4794925404       -4.9662271100       -1.0832052284
 H         -1.6233708102       -3.1999153502       -1.4467439292
 H         -2.6266046907       -4.6067498789        1.1384561213
 H         -2.7723449205       -2.8403339991        0.7757239305
 H         -0.1454335406       -4.4489715491        0.9639348616
