  62
        -98.94446252
 C          1.7748051591        0.7066703643       -0.0051905363
 C          2.9426655201        1.2435269651        0.5881249475
 C          4.2064017477        0.9242324192       -0.0847092885
 C          4.1954804590        0.1811234390       -1.2063944083
 C          5.3998834642       -0.2106714831       -2.0190529596
 C          6.1258158723       -1.4579434295       -1.4963255610
 C          6.9223897176       -1.2541694878       -0.2069268619
 H          7.5494842929       -2.1381598432       -0.0750219128
 H          7.5874238094       -0.3979719285       -0.3238671167
 C          6.0583398543       -1.0702208298        1.0484963300
 H          5.0418677345       -1.4147635457        0.8436913082
 H          6.4505243754       -1.6938476991        1.8550722141
 C          5.9992696319        0.3647078966        1.5725752921
 H          5.3344552768        0.3857889069        2.4398615261
 H          6.9929483305        0.6751144890        1.9028990151
 C          5.4810326867        1.3881649058        0.5535551028
 H          6.2390534813        1.5808540450       -0.2051362580
 H          5.2679009666        2.3205397530        1.0819282715
 H          5.3910047972       -2.2531834942       -1.3498882020
 H          6.8165241721       -1.7842204231       -2.2773423306
 H          6.0982990223        0.6252335579       -2.0669963540
 H          5.0382863403       -0.4207029513       -3.0279574205
 O          3.0485601526       -0.2992450640       -1.7574748616
 C          1.8148208644       -0.0698801731       -1.1628871747
 O          0.8546797305       -0.5966681316       -1.7566794953
 O          2.9286329389        1.9521391806        1.6299549389
 C          0.4321713104        0.9777939387        0.6483787970
 C         -0.2379399922       -0.3192928917        1.0271949837
 C          0.4885796259       -1.2611725563        1.7523621813
 C         -0.0828600379       -2.4616605154        2.1240284427
 C         -1.3929204089       -2.7490283564        1.7823714046
 C         -2.1322129768       -1.8124465870        1.0710898104
 C         -1.5562842746       -0.6023145117        0.7059947920
 H         -2.1445159868        0.1059810496        0.1476697298
 N         -3.4773181043       -2.0567294280        0.7633352221
 S         -4.1668945643       -1.5110919395       -0.6594405766
 O         -5.3783560968       -2.2962060739       -0.7821487839
 O         -3.2561868725       -1.5789612515       -1.7769479402
 C         -4.6201813120        0.1773241435       -0.3224930394
 C         -5.1883272415        0.4874358686        0.8974321082
 C         -5.5839801283        1.7934294307        1.1379577615
 C         -5.4157767292        2.7598914715        0.1579113162
 C         -4.8475957694        2.4313682927       -1.0634907224
 C         -4.4445174687        1.1275917543       -1.3085062101
 H         -3.9850534140        0.8303859695       -2.2383157383
 H         -4.7162448041        3.1833702401       -1.8256480227
 H         -5.7256577950        3.7756682545        0.3462405583
 H         -6.0234870969        2.0539106722        2.0872253882
 H         -5.3062120354       -0.2897122844        1.6336620574
 H         -3.8109071702       -2.9774821260        1.0086370683
 H         -1.8395671297       -3.6903385141        2.0645109725
 H          0.4958239630       -3.1841451913        2.6799121708
 H          1.5139808633       -1.0386271438        2.0150924605
 H          0.6689598459        1.5218257998        1.5754475953
 C         -0.4207959104        1.8688098715       -0.2291782639
 C         -1.4222553120        2.7939412030        0.3935853643
 C         -0.1707873455        3.3461656946       -0.2179443053
 H         -0.2440558807        3.8872839391       -1.1492499729
 H          0.6051925385        3.7110984655        0.4389793061
 H         -2.3600493102        2.9572569439       -0.1151493754
 H         -1.4997398476        2.7897155231        1.4701254959
 H         -0.6647317748        1.4080595210       -1.1807513819
