  62
        -98.94441780
 C         -1.8368853869       -0.0188563049       -0.4128213058
 C         -2.9766726410        0.3778305157       -1.1524023039
 C         -4.2681037896       -0.1167022520       -0.6579640943
 C         -4.2948270702       -0.9137613527        0.4259547414
 C         -5.5436324883       -1.4453455048        1.0666760511
 C         -6.0514117010       -0.4988513024        2.1634638911
 C         -6.1432919416        0.9625867462        1.7244319082
 H         -6.5403039918        1.5309230007        2.5683682642
 H         -5.1367414350        1.3393269425        1.5287202315
 C         -7.0224690787        1.2003835432        0.4887046324
 H         -7.6617402139        2.0658226938        0.6754836812
 H         -7.6770882107        0.3427977420        0.3293659619
 C         -6.2448517012        1.4901472936       -0.7964208838
 H         -6.9516503446        1.8547541234       -1.5465065058
 H         -5.5206671364        2.2880051137       -0.6139147648
 C         -5.5020942539        0.2965516275       -1.4099560112
 H         -6.1873845266       -0.5462739592       -1.5201052554
 H         -5.1599750584        0.5943093687       -2.4054477671
 H         -5.3690572992       -0.5585121864        3.0146522938
 H         -7.0334857651       -0.8452069196        2.4906382598
 H         -6.3088540196       -1.5785645426        0.3044103712
 H         -5.3149685280       -2.4146955950        1.5128436154
 O         -3.1767111436       -1.2924985752        1.0971371636
 C         -1.9210872599       -0.8502658110        0.7037722627
 O         -0.9853408769       -1.2644602575        1.4141556544
 H          2.1246088852        0.0601501280       -0.0050674577
 C          1.7461448757       -0.7392307170       -0.6193060891
 C          0.4527041818       -0.6891340017       -1.1156431010
 C         -0.0001202914       -1.7429968820       -1.9058278120
 C          0.8102803132       -2.8303258733       -2.1648828736
 C          2.0915105794       -2.8892221650       -1.6453730900
 C          2.5606749317       -1.8359029527       -0.8700199830
 N          3.8732963641       -1.8500267313       -0.3848720436
 S          4.3490040913       -1.0250127189        0.9844498416
 O          5.6482569515       -1.5861454754        1.2933760619
 O          3.3703975487       -1.0858899330        2.0439501328
 C          4.5697431456        0.6562860908        0.4393897185
 C          4.2790220957        1.6824845471        1.3161929893
 C          4.4965706343        2.9916420878        0.9150235581
 C          4.9973266551        3.2507247573       -0.3514044423
 C          5.2848805895        2.2088218288       -1.2197382925
 C          5.0752902222        0.8978210486       -0.8226986973
 H          5.2888774209        0.0658447302       -1.4723785942
 H          5.6726611038        2.4139988340       -2.2044846556
 H          5.1619552495        4.2702229820       -0.6623383415
 H          4.2738095164        3.8024225522        1.5906483109
 H          3.8776334014        1.4360267031        2.2867800760
 H          4.3764997782       -2.7154631657       -0.5090226570
 H          2.7228400419       -3.7431210816       -1.8379187057
 H          0.4412624771       -3.6436155386       -2.7716497992
 H         -1.0043241452       -1.7014260901       -2.3054630272
 C         -0.4710896824        0.4737728619       -0.8546647615
 H         -0.6460771865        0.9930421551       -1.8092166803
 C          0.0775695319        1.4708946425        0.1442587429
 C          0.9856789841        2.5720906339       -0.3130728284
 C         -0.4200331801        2.8836764876        0.1016934325
 H         -0.5825492621        3.4010749956        1.0353217041
 H         -1.1391964697        3.1306439968       -0.6656313270
 H          1.7934100761        2.8763192289        0.3350488417
 H          1.2251728973        2.6155301885       -1.3645840294
 H          0.2539454851        1.0293343531        1.1198526366
 O         -2.9151340188        1.1055397366       -2.1796996828
