  62
        -98.94524116
 C         -2.3947275719       -1.0143100773        0.1353926283
 C         -2.0107259743       -0.1025980860       -0.8776787377
 C         -2.6106979174        1.2370077798       -0.7902894594
 C         -3.4643114417        1.5152254327        0.2119437500
 C         -4.0906063060        2.8573220367        0.4562110835
 C         -3.2259180367        3.7086012465        1.3972251872
 C         -1.7495520624        3.7594153212        1.0029180999
 H         -1.2421814379        4.4052342378        1.7232726316
 H         -1.3187482147        2.7606396937        1.1090358076
 C         -1.4898563836        4.2743663198       -0.4197663328
 H         -2.3675696732        4.8089755681       -0.7845497762
 H         -0.6653693418        4.9898229358       -0.3868842228
 C         -1.1018118136        3.1888363821       -1.4254360407
 H         -0.2835968942        2.5885144369       -1.0200789393
 H         -0.7371554079        3.6810847584       -2.3307756332
 C         -2.2259353840        2.2344893546       -1.8462579438
 H         -3.0958677413        2.8075947263       -2.1725352279
 H         -1.8611768728        1.6462590383       -2.6931723589
 H         -3.6327978780        4.7210950526        1.4201649480
 H         -3.2969215633        3.2919546250        2.4048761061
 H         -4.2241710408        3.3695067277       -0.4945242228
 H         -5.0680577670        2.7031833057        0.9162427372
 O         -3.8137211860        0.6098945573        1.1622071820
 C         -3.2832594748       -0.6710541459        1.1531747538
 O         -3.6688777685       -1.3951716049        2.0941553845
 H         -0.2722618729       -0.7850029675        1.5534889602
 C          0.3232170689       -1.4737595320        0.9661885284
 C         -0.3192753866       -2.3960673295        0.1500693707
 C          0.4590705634       -3.2751301485       -0.5925401468
 C          1.8401041042       -3.2277620207       -0.5137029937
 C          2.4752970634       -2.3076538024        0.2993754299
 C          1.7075395201       -1.4177798203        1.0400692287
 N          2.3293050082       -0.4800486501        1.8773748569
 S          3.7686576743        0.2473381990        1.4456020354
 O          4.8478551477       -0.6969558424        1.5967174869
 O          3.8400640334        1.4304349338        2.2733445939
 C          3.6098874992        0.7107820263       -0.2686341660
 C          4.3497091247        0.0559559864       -1.2319940550
 C          4.2029338197        0.4289551593       -2.5583619409
 C          3.3274637656        1.4488515064       -2.8957056803
 C          2.5989552462        2.1046819606       -1.9152680888
 C          2.7360805858        1.7307596785       -0.5887682068
 H          2.1917212223        2.2248138946        0.2008020616
 H          1.9237904949        2.9021986531       -2.1805071606
 H          3.2130534700        1.7392070453       -3.9280642357
 H          4.7716963965       -0.0757140531       -3.3225858374
 H          5.0305244073       -0.7217957119       -0.9270937671
 H          1.6984515265        0.1729079002        2.3157021137
 H          3.5485686548       -2.2752976284        0.3855413836
 H          2.4317534501       -3.9197991165       -1.0931714981
 H         -0.0160292872       -3.9995392146       -1.2331278619
 C         -1.8293125033       -2.4219948897        0.1316482264
 H         -2.1704351988       -2.8908334475        1.0669863156
 C         -2.4007703679       -3.2002274920       -1.0368460700
 C         -2.6353062325       -4.6759668789       -0.9260622964
 C         -3.7980136163       -3.7308921124       -0.9330975306
 H         -4.4311371258       -3.6941592326       -1.8069052830
 H         -4.3249040609       -3.5572539302       -0.0057047481
 H         -2.4735899927       -5.2914347418       -1.7982538362
 H         -2.3802904270       -5.1555736693        0.0069677672
 H         -2.0875805895       -2.7996593662       -1.9941304461
 O         -1.2067507249       -0.3878368022       -1.8017774419
