  62
        -98.94757567
 C         -2.5236995396       -0.3007693391        0.0223182305
 C         -2.2226501398       -1.3214026194       -0.9094306093
 C         -1.5703513799       -2.5193338193       -0.3671198091
 C         -1.3156502499       -2.5879099891        0.9522626809
 C         -0.6514425000       -3.7466456591        1.6386054811
 C          0.8666065900       -3.5548241693        1.7439975410
 C          1.5429484700       -3.1812012096        0.4247455409
 H          1.2425162102       -2.1688485696        0.1440218007
 H          2.6191445001       -3.1463670297        0.6128462108
 C          1.2602823498       -4.1382604798       -0.7411095289
 H          0.9107456297       -5.0986253597       -0.3591470787
 H          2.1960025598       -4.3189325801       -1.2740871589
 C          0.2617470199       -3.6017378099       -1.7689956890
 H          0.5382956100       -2.5782060400       -2.0383215292
 H          0.3390395197       -4.2132951501       -2.6723473288
 C         -1.2103438001       -3.6101295796       -1.3357378489
 H         -1.8220611201       -3.4324062697       -2.2253131589
 H         -1.4702638102       -4.5905696395       -0.9300735287
 H          1.0649977402       -2.7525149991        2.4585165508
 H          1.3025459699       -4.4782848993        2.1312224512
 H         -0.8752713001       -4.6597929792        1.0898012013
 H         -1.0662844199       -3.8268902188        2.6452720212
 O         -1.6328982497       -1.5940376189        1.8206671407
 C         -2.1952192795       -0.4089636389        1.3737814105
 O         -2.3774388594        0.4420452013        2.2663026703
 O         -2.4947720798       -1.2352610396       -2.1394112493
 C         -3.1003779994        1.0104263008       -0.4844362397
 C         -2.0816007192        2.1005979107       -0.2536078600
 C         -2.3786912590        3.3494343109        0.2755593498
 C         -1.3665317589        4.2647338108        0.5126507495
 C         -0.0450361389        3.9499587006        0.2536733595
 C          0.2585913408        2.7091216604       -0.2953028002
 C         -0.7605476093        1.8155203705       -0.5723214600
 H         -0.5126130994        0.8576406104       -1.0061567298
 N          1.5832875008        2.3262885202       -0.5783403902
 S          1.9535716106        0.6994664602       -0.2783849099
 O          1.6280923504       -0.0690518400       -1.4539376397
 O          1.3525051506        0.2773336905        0.9655208602
 C          3.7261835306        0.7901689999       -0.1054679500
 C          4.5112103805        0.7681012896       -1.2426035600
 C          5.8869178205        0.8691895294       -1.1084983001
 C          6.4512617906        0.9909040396        0.1526600498
 C          5.6506755107        1.0096132900        1.2849786399
 C          4.2740465307        0.9099096001        1.1576777899
 H          3.6112980907        0.9092470304        2.0085395600
 H          6.0916896707        1.1004124401        2.2645022698
 H          7.5221479506        1.0681927995        0.2544784198
 H          6.5125097205        0.8514321892       -1.9861960602
 H          4.0266905605        0.6619524095       -2.1991199700
 H          2.2653556709        2.9445225501       -0.1595635604
 H          0.7438434512        4.6528915605        0.4745932793
 H         -1.6094294487        5.2302300209        0.9300687593
 H         -3.3985454590        3.6004295611        0.5174476397
 H         -3.2233730295        0.8760063806       -1.5700872197
 C         -4.4519589293        1.2985451212        0.1316501903
 C         -5.4611727493        2.1180186612       -0.6145450499
 C         -5.6679331495        0.6433938912       -0.4492728495
 H         -6.4388666495        0.3001156815        0.2239492106
 H         -5.5226520796        0.0050837610       -1.3086538194
 H         -6.0958124191        2.7883396114       -0.0549060000
 H         -5.1835219592        2.4831806409       -1.5917496999
 H         -4.4029093593        1.3981153814        1.2099989302
