  62
        -98.93735222
 C          1.8255171579        0.1462292935       -0.2304916405
 C          2.9433720272        0.3353193123       -1.0723284287
 C          4.2685664848        0.3793517332       -0.4239943823
 C          4.3369466387        0.2514376107        0.9145442040
 C          5.5655447409        0.2324888996        1.7846486242
 C          6.3235208387       -1.1032512779        1.7125838583
 C          6.4804626151       -1.6794142102        0.3077467146
 H          6.9257511882       -2.6731470165        0.4042435233
 H          5.4929631981       -1.8092724137       -0.1387357579
 C          7.3611484397       -0.8637081596       -0.6356842037
 H          8.3608746497       -0.7737659965       -0.2047622200
 H          7.4509395780       -1.4294894362       -1.5666295391
 C          6.8533526344        0.5378931793       -0.9797299574
 H          7.4423161622        0.8981701969       -1.8284171233
 H          7.0338810219        1.2317547030       -0.1631230789
 C          5.3909902915        0.5979780108       -1.4099716068
 H          5.2005088902        1.5802889957       -1.8596678421
 H          5.2256295481       -0.1233421080       -2.2185100953
 H          7.3073250979       -0.9664580057        2.1646064830
 H          5.7752627413       -1.8342057374        2.3117009527
 H          6.2168779793        1.0626211850        1.5275967643
 H          5.2243537972        0.3832462583        2.8111734106
 O          3.2276810631        0.0733369105        1.6882469329
 C          1.9547937051        0.0164410228        1.1517502948
 O          1.0462063884       -0.1464781058        1.9874242031
 H         -2.2320178277       -0.0091623228       -0.1895572320
 C         -1.7898773587        0.9563672945       -0.0081504573
 C         -0.4473269316        1.1732866052       -0.2785674590
 C          0.0804125235        2.4410071573       -0.0468188039
 C         -0.7069078847        3.4530088641        0.4656297249
 C         -2.0458313230        3.2312529568        0.7356656365
 C         -2.5888617712        1.9772196427        0.4895995457
 N         -3.9419849502        1.7173194480        0.7528152208
 S         -4.8416117751        0.8227834546       -0.3381379477
 O         -4.3810819104        1.0146658459       -1.6933663546
 O         -6.2143957045        1.2014236995       -0.0758101063
 C         -4.6183081199       -0.8730798568        0.1545582564
 C         -4.5832467552       -1.8500238738       -0.8205448672
 C         -4.4669328785       -3.1773738236       -0.4376411255
 C         -4.3878452238       -3.5025264413        0.9075482269
 C         -4.4251915654       -2.5091607910        1.8744522736
 C         -4.5466349104       -1.1809235947        1.4986772763
 H         -4.5762263449       -0.3853402833        2.2241983504
 H         -4.3596291995       -2.7654590169        2.9196428523
 H         -4.2948585510       -4.5354970358        1.2038567627
 H         -4.4373915668       -3.9506565603       -1.1889826735
 H         -4.6353330049       -1.5518797321       -1.8555596902
 H         -4.4647260098        2.5055454234        1.1062175699
 H         -2.6642859150        4.0218883035        1.1329190699
 H         -0.2777301854        4.4266400426        0.6494324877
 H          1.1236674921        2.6217060778       -0.2676879015
 C          0.4400627321        0.0915690562       -0.8438116440
 H          0.5848842202        0.3003889348       -1.9151853331
 C         -0.1395073093       -1.3002376823       -0.6942259264
 C         -1.0702032648       -1.8547858011       -1.7296109603
 C          0.3290905326       -2.3795026823       -1.6221202299
 H          0.4795121405       -3.3720840942       -1.2253789667
 H          1.0420242252       -2.1004040528       -2.3843553847
 H         -1.8805237548       -2.4887182516       -1.4024805764
 H         -1.3166131411       -1.2241043065       -2.5708968937
 H         -0.3086257717       -1.5681300086        0.3429373383
 O          2.8459295694        0.4646409104       -2.3238898695
