  62
        -98.93824471
 C         -2.4910021335       -0.6939327098       -0.0148678748
 C         -2.9148054166        0.4232108105        0.7505682034
 C         -4.0585637035        1.1764707486        0.2278815752
 C         -4.6231912244        0.8035135545       -0.9347003062
 C         -5.7796126090        1.4824065462       -1.6172537962
 C         -7.1560156731        1.0505757826       -1.0931718646
 C         -7.5186913769        1.5793196426        0.2951173846
 H         -7.3772931390        2.6602519606        0.3193645342
 H         -8.5830953148        1.3866307210        0.4434226857
 C         -6.7353248750        0.9297639675        1.4444311924
 H         -6.2767319462        0.0020923742        1.0942049486
 H         -7.4239060219        0.6618068435        2.2490285552
 C         -5.6502405237        1.8176385404        2.0538881524
 H         -5.1356865118        1.2456656437        2.8303184160
 H         -6.1114340539        2.6875401684        2.5267849937
 C         -4.5974092955        2.3073829955        1.0509669556
 H         -5.0211016441        3.0779657882        0.4072278111
 H         -3.7634369115        2.7373568628        1.6109957413
 H         -7.2024950684       -0.0408986086       -1.0911586102
 H         -7.9030673524        1.4133416078       -1.8029253089
 H         -5.7152499964        1.2167335617       -2.6745857707
 H         -5.6762298125        2.5638039550       -1.5234162716
 O         -4.1751416733       -0.2576398125       -1.6531003772
 C         -3.1121858556       -1.0418297998       -1.2154651842
 O         -2.8427613028       -1.9832196085       -1.9823704590
 O         -2.3596776863        0.7703253807        1.8280490069
 C         -1.3229413891       -1.4879879509        0.5414867190
 C         -0.0128571100       -0.9757771667       -0.0004882118
 C          0.2042644385       -0.8446277293       -1.3686071125
 C          1.4192509774       -0.3847788571       -1.8429354443
 C          2.4365688302       -0.0414319875       -0.9692970807
 C          2.2295899209       -0.1641854406        0.3976600765
 C          1.0096135914       -0.6313105075        0.8711606520
 H          0.8480160908       -0.7147184992        1.9376982599
 N          3.2520513498        0.1992156706        1.2887788089
 S          4.7945957429       -0.4130092203        1.0345774153
 O          4.7465981518       -1.6930787210        0.3675346878
 O          5.4276207928       -0.3866745809        2.3347277495
 C          5.5727533768        0.7967338969       -0.0141850191
 C          5.6220061395        2.1053568593        0.4246546044
 C          6.2334565733        3.0566301374       -0.3761050198
 C          6.7852443670        2.6849621204       -1.5931990628
 C          6.7312974084        1.3661966538       -2.0175938286
 C          6.1197069770        0.4098652991       -1.2219154758
 H          6.0501850962       -0.6261443690       -1.5134379698
 H          7.1615879245        1.0790799960       -2.9635876184
 H          7.2606627652        3.4275521606       -2.2144135475
 H          6.2778346442        4.0831374720       -0.0495111812
 H          5.1861448560        2.3528056848        1.3781941816
 H          2.9912895653        0.1329034168        2.2620235879
 H          3.3831786950        0.3192773972       -1.3369424535
 H          1.5757407613       -0.2903738884       -2.9068817185
 H         -0.5871690580       -1.1124602619       -2.0523862537
 H         -1.3345396081       -1.2733991738        1.6223667889
 C         -1.4832925479       -2.9936675117        0.3837280468
 C         -0.6533897570       -3.8322166355       -0.5361875687
 C         -0.4446638877       -3.9205847136        0.9440064487
 H         -0.7676496351       -4.8094187301        1.4645288361
 H          0.4549988001       -3.4764947876        1.3446648499
 H         -1.1438173459       -4.6478904053       -1.0448781277
 H          0.1072322374       -3.3480647989       -1.1277974306
 H         -2.5178112261       -3.3005262151        0.5013508945
