  62
        -98.93678734
 C         -2.4186207945       -1.2301134583        0.1136326657
 C         -2.3358392811        0.0471988529       -0.4933201069
 C         -3.6196675658        0.6564000628       -0.8796235684
 C         -4.7672067103       -0.0032115098       -0.6421108517
 C         -6.1407576521        0.5248176236       -0.9366604550
 C         -6.7171462477        1.2765053980        0.2714579354
 C         -5.7602878582        2.3062451706        0.8722961707
 H         -6.2841893506        2.7945776953        1.6967760108
 H         -4.8999072311        1.7869590930        1.3007498117
 C         -5.2659732483        3.3683574707       -0.1196060770
 H         -5.9215914347        3.3955907078       -0.9906744911
 H         -5.3220415336        4.3480341874        0.3594638443
 C         -3.8193238625        3.1815922518       -0.5812912170
 H         -3.1677648851        3.0589905896        0.2878334465
 H         -3.5063726256        4.0930035931       -1.0977810097
 C         -3.5698532406        2.0073553006       -1.5362720681
 H         -4.2707951409        2.0563238660       -2.3722502680
 H         -2.5548530732        2.1111561213       -1.9318119081
 H         -6.9655050551        0.5473683965        1.0460520264
 H         -7.6393944240        1.7712593352       -0.0382141079
 H         -6.7903366364       -0.3200512563       -1.1714435744
 H         -6.0927140112        1.1849806688       -1.8004079816
 O         -4.8076074733       -1.2230869655       -0.0476466429
 C         -3.6443468686       -1.8549148779        0.3593902128
 O         -3.8295548775       -2.9499559240        0.9262168925
 O         -1.2575970878        0.6610432664       -0.7055998313
 C         -1.1791540416       -1.9764445085        0.5763446441
 C         -0.2266117523       -1.0305425261        1.2665798737
 C         -0.6742151346       -0.3377873038        2.3887974614
 C          0.1534238518        0.5513095850        3.0453831580
 C          1.4475751669        0.7610008056        2.6035496708
 C          1.9107602852        0.0616642532        1.4949761170
 C          1.0753467609       -0.8296833048        0.8364916527
 H          1.4480241486       -1.3357096396       -0.0371734634
 N          3.2426234526        0.2233850939        1.0749813044
 S          3.7173239601       -0.0230285961       -0.5217409520
 O          3.0284389317        0.8773810956       -1.4185190010
 O          3.6285084478       -1.4291171104       -0.8261179588
 C          5.4333555653        0.4458191820       -0.3846210297
 C          6.3097600672       -0.4391246644        0.2148463930
 C          7.6408892057       -0.0781461350        0.3475059550
 C          8.0720566913        1.1550498904       -0.1189784069
 C          7.1818497705        2.0318485308       -0.7200740851
 C          5.8484338886        1.6771167006       -0.8543791840
 H          5.1217295992        2.3228072660       -1.3210020915
 H          7.5203080569        2.9883369937       -1.0846409127
 H          9.1089794473        1.4333304973       -0.0158678181
 H          8.3365679518       -0.7580603961        0.8122544129
 H          5.9310112631       -1.3891348982        0.5537395697
 H          3.6654618507        1.0639407979        1.4446954496
 H          2.0930959185        1.4612011565        3.1117739265
 H         -0.2122589035        1.0914199420        3.9060617855
 H         -1.6898764068       -0.4953746402        2.7278021338
 H         -1.5435796888       -2.6943292472        1.3308193639
 C         -0.5120396650       -2.7989747280       -0.5162567392
 C         -1.2905491719       -3.3380933462       -1.6777964442
 C         -0.2781100164       -2.2552744566       -1.8924042132
 H          0.6508501065       -2.5006117843       -2.3876540176
 H         -0.6238343013       -1.2543309222       -2.0986044336
 H         -1.0629176073       -4.3337880670       -2.0275060521
 H         -2.3375636646       -3.0798729277       -1.7441875152
 H          0.2615970586       -3.4491998058       -0.1179052747
