  62
        -98.94666716
 C          0.0352724741       -1.9704129829        0.5995067518
 C         -0.6303487087       -2.2108098640       -0.6266569831
 C         -2.0708434989       -1.9322478061       -0.6315364735
 C         -2.6725394710       -1.4927391783        0.4886268966
 C         -4.1434174896       -1.2187788206        0.6485311502
 C         -4.5733891581        0.1776640295        0.1811935300
 C         -4.5664459240        0.3946246419       -1.3319621211
 H         -5.1413545188       -0.3952541909       -1.8162751872
 H         -5.0834254438        1.3367707264       -1.5224896010
 C         -3.1639250805        0.4672763714       -1.9520769403
 H         -2.4248528737        0.6494468787       -1.1677516705
 H         -3.1116046705        1.3139093974       -2.6397067157
 C         -2.7584361133       -0.7795424126       -2.7389284998
 H         -1.7337702759       -0.6436072388       -3.0948817776
 H         -3.4067415695       -0.8898269450       -3.6111778301
 C         -2.8076707901       -2.0811915549       -1.9277571473
 H         -3.8413099650       -2.3776153177       -1.7512291135
 H         -2.3109919195       -2.8648439700       -2.5050035805
 H         -5.5887210550        0.3455924883        0.5472950152
 H         -3.9169565188        0.9111900788        0.6506257067
 H         -4.7145663602       -1.9786657483        0.1143360836
 H         -4.3619026079       -1.3067412488        1.7149569222
 O         -1.9934524976       -1.2655823185        1.6453267530
 C         -0.6246639248       -1.4703538296        1.7207264636
 O         -0.1204446351       -1.1774112247        2.8248896553
 O         -0.0564959258       -2.6415975080       -1.6602231474
 C          1.5317727651       -2.2025572529        0.6946879825
 C          2.2373570857       -1.3367990362       -0.3212623668
 C          3.1947394041       -1.8108390983       -1.2076694396
 C          3.7928010726       -0.9520535110       -2.1138539945
 C          3.4729062291        0.3925874007       -2.1351533514
 C          2.5248150751        0.8799881627       -1.2421015931
 C          1.9079586999        0.0127872485       -0.3569220116
 H          1.1636574939        0.3930903338        0.3281333385
 N          2.1746772804        2.2389665335       -1.2252439935
 S          1.9551098656        3.0175415612        0.2427892158
 O          2.3027928384        4.3972080254       -0.0287133041
 O          2.6957833400        2.3716146213        1.3000055531
 C          0.2046000103        2.9494005543        0.5578157433
 C         -0.6292997312        3.6437911754       -0.2976481674
 C         -1.9855366262        3.6896858430       -0.0225569370
 C         -2.4838160049        3.0469797709        1.1011885624
 C         -1.6383395710        2.3348376265        1.9378943961
 C         -0.2794293304        2.2865598054        1.6674696019
 H          0.4027971812        1.7443302645        2.3051037587
 H         -2.0215209284        1.8123719138        2.8007810702
 H         -3.5361367441        3.1099314503        1.3311814074
 H         -2.6496770817        4.2312379191       -0.6763179647
 H         -0.1989600198        4.1487232095       -1.1463266591
 H          2.6922238781        2.8154027992       -1.8730700881
 H          3.9483875254        1.0624459235       -2.8355978305
 H          4.5265981231       -1.3344397571       -2.8072151583
 H          3.4669331735       -2.8533123664       -1.1968710006
 H          1.8351329040       -1.8597511925        1.6954488163
 C          1.8471532683       -3.6780021950        0.5666861017
 C          3.0774215462       -4.2440518159        1.2077792486
 C          1.7260500777       -4.5509141009        1.7779998067
 H          1.3283457582       -5.5474960291        1.6586309487
 H          1.4398567368       -4.0751133622        2.7050461816
 H          3.6084091319       -5.0343299350        0.6988700071
 H          3.7147469216       -3.5640120469        1.7530151409
 H          1.5252507350       -4.0914658048       -0.3820455177
