  62
        -98.94227335
 C         -2.4987599814       -0.0358470845       -0.1400486004
 C         -1.5317643227       -0.3688319910        0.8384296403
 C         -1.1042137632       -1.7741179500        0.8813875508
 C         -1.6129226825       -2.6440917760       -0.0082375407
 C         -1.1618687727       -4.0650846486       -0.1880819167
 C          0.1662373235       -4.0802724301       -0.9738619204
 C          1.3619414953       -4.6125477144       -0.1834929250
 H          1.2844848589       -5.6997849150       -0.1093234476
 H          2.2583539162       -4.3817057414       -0.7635423814
 C          1.5269151952       -4.0525453153        1.2327735281
 H          0.8527658942       -4.5750750626        1.9135755576
 H          2.5429674968       -4.2920649649        1.5533143799
 C          1.3064554387       -2.5417412202        1.3834563549
 H          2.0453351211       -2.1565584986        2.0898622074
 H          1.4779770351       -2.0310022599        0.4347006643
 C         -0.0846565740       -2.1516758966        1.9197920989
 H         -0.4786087057       -2.9588047326        2.5436412776
 H          0.0211611102       -1.2648812863        2.5509029462
 H          0.0509914012       -4.6891932733       -1.8725250232
 H          0.3796159629       -3.0625359674       -1.3117559075
 H         -1.0403485550       -4.5430953539        0.7814890234
 H         -1.9390981186       -4.5900936815       -0.7441562140
 O         -2.5482714578       -2.2941429564       -0.9290620543
 C         -2.9857522632       -0.9846648235       -1.0400480297
 O         -3.7988465469       -0.7928061212       -1.9680932984
 O         -1.0310863323        0.4657872514        1.6376427771
 C         -2.9150010766        1.4081367396       -0.3758468886
 C         -1.6694461818        2.2622472017       -0.3906375187
 C         -1.4939183951        3.4125930208        0.3662741847
 C         -0.2935887425        4.1023102303        0.3225641824
 C          0.7613529316        3.6457045286       -0.4459658889
 C          0.5931112867        2.4958049946       -1.2096012173
 C         -0.6260953086        1.8412767224       -1.2072930594
 H         -0.7446577824        0.9518546762       -1.8100413346
 N          1.6417729731        1.9601706182       -1.9871462181
 S          2.2072528113        0.4351460112       -1.5775202437
 O          3.2438221358        0.1478888053       -2.5466394138
 O          1.1147248007       -0.5016874529       -1.5231247173
 C          2.9586911026        0.6481051811        0.0273582940
 C          4.3380354441        0.6786818021        0.1076153802
 C          4.9357742029        0.8953518992        1.3382023161
 C          4.1466592979        1.0875059139        2.4624574925
 C          2.7645446058        1.0593847137        2.3628578722
 C          2.1576146452        0.8383453628        1.1354247945
 H          1.0829695113        0.8035814146        1.0453176192
 H          2.1431524326        1.2078578861        3.2315522867
 H          4.6101734964        1.2587428912        3.4213187235
 H          6.0109210890        0.9153186143        1.4159085796
 H          4.9085429732        0.5239820960       -0.7939736835
 H          2.4320638845        2.5827644555       -2.0882482363
 H          1.7080844425        4.1648562468       -0.4513070658
 H         -0.1701723658        4.9944550155        0.9173747421
 H         -2.2861904735        3.7570469346        1.0103841293
 H         -3.3401431906        1.4156544666       -1.3938331213
 C         -4.0035571752        1.9234943714        0.5525113410
 C         -4.9626021020        0.9786323688        1.2117590018
 C         -3.9539065930        1.7181617347        2.0355387390
 H         -4.3039715178        2.5160537910        2.6740792815
 H         -3.1133064218        1.1729858889        2.4330882258
 H         -6.0006634599        1.2678736478        1.2805674875
 H         -4.8143693581       -0.0788712511        1.0455490953
 H         -4.4234523549        2.8616390494        0.2026228408
