  62
        -98.94491770
 C         -1.9685321656       -0.8480936065        0.0659696929
 C         -2.2524956218        0.1194531481        1.0568714047
 C         -2.3147959900        1.5120882665        0.5973763832
 C         -2.0712793093        1.7873915017       -0.6972488017
 C         -2.1292585266        3.1581490783       -1.3064626089
 C         -3.5309590017        3.4709006326       -1.8489374215
 C         -4.6554256630        3.1787863829       -0.8555033906
 H         -5.5947599519        3.4623396959       -1.3347798973
 H         -4.6975115695        2.1025431600       -0.6737277301
 C         -4.5228303636        3.9133672654        0.4857515237
 H         -3.8288882343        4.7483399769        0.3837233419
 H         -5.4956552319        4.3295205253        0.7553550698
 C         -4.0793142611        3.0279898662        1.6517692832
 H         -4.7148347544        2.1403329316        1.7004821917
 H         -4.2256331442        3.5874908576        2.5794590816
 C         -2.6156086120        2.5691671012        1.6227189851
 H         -1.9586995106        3.4315146428        1.4881501593
 H         -2.3870632056        2.1163274857        2.5923013892
 H         -3.5615571165        4.5228798379       -2.1381713924
 H         -3.6973307817        2.8661435257       -2.7432310582
 H         -1.8438742514        3.8930018957       -0.5558641948
 H         -1.4101467025        3.1950836918       -2.1267146524
 O         -1.7912436408        0.8324989540       -1.6200539227
 C         -1.7159822364       -0.5035717545       -1.2622102368
 O         -1.4386980911       -1.2740361096       -2.2019333228
 H          0.4287463355       -0.9503841266        0.9030566083
 C          0.6306976923       -1.9080857413        0.4440835149
 C         -0.4214488914       -2.7682856179        0.1557664479
 C         -0.1318548344       -4.0009261504       -0.4145753634
 C          1.1753399766       -4.3394257441       -0.7206265870
 C          2.2125262333       -3.4575492513       -0.4810911291
 C          1.9345851461       -2.2295933060        0.1098808551
 N          2.9611041410       -1.3091737908        0.3898529775
 S          2.5990907030        0.3364417480        0.2555525600
 O          1.9961834359        0.7793800982        1.4890122429
 O          1.8549802795        0.5971338636       -0.9560436665
 C          4.2462202307        1.0096038876        0.1276279329
 C          4.9938454704        1.1564905348        1.2809654330
 C          6.2858829989        1.6480046554        1.1833574469
 C          6.8063083837        1.9818055864       -0.0583893539
 C          6.0435769167        1.8306918663       -1.2066330693
 C          4.7508954356        1.3382351487       -1.1161897360
 H          4.1167481764        1.2101527554       -1.9790467204
 H          6.4488236754        2.0939676860       -2.1703260614
 H          7.8117403735        2.3650010748       -0.1317376011
 H          6.8807106632        1.7694439270        2.0741338191
 H          4.5421496274        0.8924877322        2.2229025408
 H          3.8254692464       -1.5345477780       -0.0844781077
 H          3.2269291663       -3.7125429282       -0.7475154387
 H          1.3862622974       -5.2972833238       -1.1715092652
 H         -0.9306823152       -4.6903450939       -0.6338499597
 C         -1.8216515931       -2.3025942244        0.4743152426
 H         -1.9513189333       -2.3158744814        1.5674555550
 C         -2.9023783380       -3.1540041978       -0.1582517429
 C         -3.4061178088       -4.3814382479        0.5390827247
 C         -4.2694956998       -3.1598985389        0.4553590243
 H         -5.1281079363       -3.1753877190       -0.1989504662
 H         -4.4117539558       -2.5693693784        1.3488170274
 H         -2.9696773863       -4.6270831632        1.4953516614
 H         -3.6764635359       -5.2389509138       -0.0583720260
 H         -2.8383625553       -3.1650818427       -1.2406269853
 O         -2.4412403029       -0.1698436816        2.2712672711
