  62
        -98.94061068
 C         -2.2695444502       -1.0017836286       -0.3123524830
 C         -3.5996485487       -1.1581809483        0.1492848214
 C         -4.5713782718       -0.1805077124       -0.3513899910
 C         -4.1735926641        0.7732294420       -1.2129693176
 C         -5.0492158040        1.8312837119       -1.8277869550
 C         -5.2436653521        3.0691707030       -0.9413757355
 C         -6.1494303892        2.8624546569        0.2732741443
 H         -6.3695920479        3.8514499400        0.6799895914
 H         -7.0944131794        2.4253751628       -0.0506052392
 C         -5.5338391167        1.9986468409        1.3829960509
 H         -5.6991909692        2.4774139999        2.3507890901
 H         -4.4525026660        1.9361528335        1.2384584394
 C         -6.1044342151        0.5832719867        1.4749632874
 H         -5.5749092675        0.0518522348        2.2697403536
 H         -7.1608107796        0.6313465684        1.7478992991
 C         -5.9698080560       -0.2379551648        0.1856352598
 H         -6.1940416592       -1.2816526012        0.4183205037
 H         -6.6795973776        0.1151682324       -0.5617809328
 H         -4.2624307616        3.4180947667       -0.6106925229
 H         -5.6812843465        3.8515270991       -1.5657613647
 H         -6.0206219691        1.4042218553       -2.0779354426
 H         -4.5567584295        2.1428816649       -2.7514334584
 O         -2.8899606796        0.8772065425       -1.6501353439
 C         -1.9010943870        0.0172693125       -1.1905649009
 O         -0.7659653934        0.2609107464       -1.6436945758
 O         -3.9559962561       -2.0694262642        0.9430581462
 C         -1.2043254200       -1.9516706204        0.2090266568
 C         -0.2364256348       -1.1645911499        1.0576463056
 C         -0.7096832249       -0.5964617558        2.2389526413
 C          0.1180509170        0.1688991014        3.0355541469
 C          1.4332284311        0.3903873356        2.6651165582
 C          1.9180335790       -0.1768126747        1.4930083265
 C          1.0864031902       -0.9582982271        0.7007782269
 H          1.4809612640       -1.3753048065       -0.2095926309
 N          3.2668968025        0.0020383025        1.1276330505
 S          3.6530620270        0.3724998249       -0.4759863539
 O          2.9848493911        1.5882243096       -0.8846388535
 O          3.4517289504       -0.7942878069       -1.2952896949
 C          5.4024539178        0.6756564495       -0.2939374416
 C          6.2519478017       -0.4088896800       -0.1844566374
 C          7.6090035628       -0.1830817946       -0.0184838813
 C          8.0919922007        1.1161657055        0.0350224586
 C          7.2277544251        2.1946374225       -0.0773438531
 C          5.8689688352        1.9752768783       -0.2421881412
 H          5.1602026898        2.7816785652       -0.3429488594
 H          7.6058167891        3.2035565123       -0.0383950533
 H          9.1488722655        1.2893380856        0.1626371129
 H          8.2843125880       -1.0190434935        0.0669875281
 H          5.8315726091       -1.3993008163       -0.2405958593
 H          3.7315759932        0.6640832926        1.7368377067
 H          2.0798563646        0.9974169783        3.2809781917
 H         -0.2627254658        0.6042707438        3.9472639075
 H         -1.7419928392       -0.7607769809        2.5168121330
 H         -1.7396109832       -2.6542506429        0.8644143786
 C         -0.5534563205       -2.7322867478       -0.9109418031
 C          0.1407773991       -4.0246924408       -0.6055167742
 C         -1.1620926240       -4.0304733776       -1.3456911321
 H         -1.1587339415       -4.2731265327       -2.3977418831
 H         -2.0461731208       -4.3648461904       -0.8226277993
 H          1.0437648739       -4.2616115827       -1.1473990290
 H          0.1417414025       -4.3580192145        0.4212662033
 H         -0.1304391154       -2.0978340892       -1.6819629611
