  62
        -98.94272302
 C         -0.9850404238       -1.2596119025       -0.5315794719
 C         -1.9767068395       -1.5452420751        0.4424283099
 C         -2.9192137817       -0.4649061025        0.7561238204
 C         -2.7811210811        0.7216426720        0.1375102282
 C         -3.6906948756        1.8991403788        0.3324720415
 C         -4.8433707965        1.8856145005       -0.6810053472
 C         -5.5680770078        0.5428477467       -0.7729606079
 H         -4.8829081474       -0.2047806970       -1.1791288972
 H         -6.3803320214        0.6590855753       -1.4938918975
 C         -6.1367412855        0.0356555280        0.5596912071
 H         -7.1521214728       -0.3293828901        0.3909012667
 H         -6.2034287254        0.8587708530        1.2719492828
 C         -5.3489035673       -1.1153376367        1.1884512000
 H         -5.1995093872       -1.9049214898        0.4475517844
 H         -5.9510964313       -1.5371967499        1.9976622976
 C         -3.9828999191       -0.7451282449        1.7802069296
 H         -3.6256768879       -1.6048632593        2.3546065396
 H         -4.0950056201        0.1003220337        2.4619418735
 H         -4.4400224655        2.1240139912       -1.6677081103
 H         -5.5551631255        2.6662325996       -0.4063715107
 H         -4.0853142905        1.8815375749        1.3463675331
 H         -3.1069788268        2.8093204368        0.1928518272
 O         -1.8163529071        0.9651703337       -0.7821324386
 C         -0.8939045858       -0.0102118808       -1.1481277854
 O         -0.0852940617        0.3739152129       -2.0110943806
 H          1.4512931343       -0.1921641780       -0.1221403286
 C          1.7770183167       -1.0710943003        0.4116991394
 C          1.1539528379       -2.2873513959        0.1719113828
 C          1.5849595032       -3.4090840612        0.8701098753
 C          2.6195741796       -3.3119764437        1.7838291265
 C          3.2477732932       -2.1004928174        2.0096271155
 C          2.8216340715       -0.9719227521        1.3180987167
 N          3.4084393244        0.2809952611        1.5417416752
 S          3.6019201662        1.3421771342        0.2605834018
 O          3.9203299700        0.6377652416       -0.9591140903
 O          4.6113013572        2.2738489878        0.7236786547
 C          2.0602302363        2.2186355421        0.1221827380
 C          1.6871115458        2.7010849918       -1.1153066800
 C          0.5313532000        3.4576445855       -1.2190532895
 C         -0.2278755324        3.7136783125       -0.0895149636
 C          0.1543077802        3.2125279164        1.1453955006
 C          1.3132546395        2.4621909255        1.2575904120
 H          1.6377011337        2.0556794841        2.2015371811
 H         -0.4477165609        3.4017706383        2.0200889639
 H         -1.1259228455        4.3056803099       -0.1749437934
 H          0.2231556261        3.8309396674       -2.1822566553
 H          2.2926127691        2.4600410511       -1.9741356109
 H          4.2060148787        0.2835582692        2.1606347738
 H          4.0565764488       -2.0234393419        2.7201548130
 H          2.9433904260       -4.1887443493        2.3237770001
 H          1.0928305995       -4.3561380265        0.7047126592
 C          0.0136564311       -2.3689118305       -0.8112191420
 H         -0.5303723886       -3.3047589710       -0.6039091555
 C          0.4856167335       -2.4348774944       -2.2551191046
 C          1.8136302436       -1.9286586758       -2.7229175623
 C          1.5610135388       -3.4033191048       -2.6518927322
 H          1.4483805957       -3.9542575530       -3.5734661733
 H          2.0506021555       -3.9546648342       -1.8631495187
 H          2.4838622310       -1.4753764678       -2.0083525674
 H          1.8484096907       -1.4528015712       -3.6914372618
 H         -0.3390900572       -2.3133452286       -2.9507812112
 O         -2.0674375230       -2.6614447739        1.0218005023
