  62
        -98.93721702
 C          2.4207760020        1.0698461983       -0.0369902761
 C          3.5126198743        0.7379389581        0.7999703422
 C          4.5491929469       -0.1478524178        0.2363849384
 C          4.3990151567       -0.5957599188       -1.0240974938
 C          5.2920244703       -1.5305105760       -1.7961764294
 C          5.1418485149       -2.9951893601       -1.3555530323
 C          5.1083269431       -3.2108857092        0.1550162326
 H          4.8987762370       -4.2687151554        0.3342997928
 H          4.2802109994       -2.6407425182        0.5799377935
 C          6.3990093699       -2.8592183662        0.8911116714
 H          7.2194294506       -3.4510278748        0.4791813025
 H          6.2674557995       -3.1560820623        1.9347616871
 C          6.8028889060       -1.3832452481        0.8666659933
 H          7.2572324532       -1.1144988208       -0.0832079933
 H          7.5748651468       -1.2446289438        1.6292424420
 C          5.6775007448       -0.4106617162        1.2046205293
 H          6.1168337272        0.5719039562        1.4152244890
 H          5.2050636469       -0.7201978383        2.1438194367
 H          5.9608000122       -3.5708867951       -1.7901721945
 H          4.2044878422       -3.3772752759       -1.7671912175
 H          6.3260169704       -1.2076372026       -1.7196238624
 H          4.9954910944       -1.4509259265       -2.8444271996
 O          3.3231173273       -0.2584456538       -1.7907009193
 C          2.3151054132        0.5704707668       -1.3342210656
 O          1.4136181016        0.7810558617       -2.1687513394
 O          3.6241720391        1.1639395943        1.9811597166
 C          1.3413389621        1.9807048839        0.5232679961
 C          0.0781804234        1.1801541846        0.7222539149
 C         -0.0715803628        0.4211548667        1.8796921232
 C         -1.2050375946       -0.3437245801        2.0814724052
 C         -2.2100914780       -0.3752623350        1.1301952523
 C         -2.0673634748        0.3722039734       -0.0305370780
 C         -0.9338772497        1.1509287877       -0.2245956600
 H         -0.8305743843        1.7169226297       -1.1371406837
 N         -3.0748864419        0.3255291615       -1.0107780531
 S         -4.6459336839        0.6810514614       -0.5409857776
 O         -5.3096586055        1.1431296934       -1.7406064808
 O         -4.6678227695        1.5788859768        0.5909923859
 C         -5.3248513124       -0.8982448380       -0.0771336293
 C         -5.3102007184       -1.9139132723       -1.0129640182
 C         -5.8454090653       -3.1456648458       -0.6717143317
 C         -6.3861143753       -3.3389573246        0.5909616683
 C         -6.3959288188       -2.3082689129        1.5181883120
 C         -5.8608980823       -1.0739589535        1.1834855874
 H         -5.8418582133       -0.2450193248        1.8728961448
 H         -6.8168275761       -2.4605306252        2.4990636417
 H         -6.8023858312       -4.2987562718        0.8534307728
 H         -5.8392775697       -3.9496372082       -1.3900518832
 H         -4.8841341739       -1.7216140715       -1.9836553310
 H         -2.8321098240        0.8173585581       -1.8586696149
 H         -3.0953150180       -0.9723789174        1.2775860358
 H         -1.3078395496       -0.9231180511        2.9863701853
 H          0.7184068488        0.4365770587        2.6176631776
 H          1.7071159036        2.2851562292        1.5133300038
 C          1.1466286859        3.2209009361       -0.3241154594
 C          0.3662353729        4.3722815490        0.2339099962
 C          1.8497316885        4.4876790164        0.0563568302
 H          2.2272807331        5.1230039776       -0.7308196211
 H          2.4729288402        4.4681816716        0.9382906971
 H         -0.2779916637        4.9301709046       -0.4287512341
 H         -0.0203819707        4.2711488416        1.2369016750
 H          1.0511421252        3.0098688233       -1.3823418225
