  62
        -98.94176231
 C         -2.1990726688       -1.2609089788        0.2972786256
 C         -1.8051223372       -0.3152113963       -0.6817633842
 C         -2.6143657469        0.9147134631       -0.7438765396
 C         -3.6365782444        1.0829072815        0.1135292177
 C         -4.5227439004        2.2929829878        0.1714619272
 C         -3.9805645985        3.3386426471        1.1554228951
 C         -2.4991963774        3.6599861753        0.9577171021
 H         -1.9071117919        2.7747937776        1.2031062481
 H         -2.2330956756        4.4325682175        1.6825777982
 C         -2.1369666030        4.1367854169       -0.4558153704
 H         -1.4738435642        5.0005854244       -0.3734662793
 H         -3.0363369641        4.4674019164       -0.9764978446
 C         -1.4078781541        3.0963194370       -1.3079285984
 H         -0.5601003569        2.6994573478       -0.7441461556
 H         -1.0062830776        3.6043409596       -2.1887232961
 C         -2.2586203305        1.9198414962       -1.8038250680
 H         -1.6724991332        1.3723251712       -2.5478506207
 H         -3.1594619235        2.2994520909       -2.2903770414
 H         -4.1175807288        2.9628845002        2.1722214230
 H         -4.5696600308        4.2513379453        1.0494154637
 H         -4.6048483858        2.7244161750       -0.8243170744
 H         -5.5132913010        1.9760678250        0.5025587200
 O         -3.9545588856        0.1734282925        1.0704098944
 C         -3.2403273265       -1.0079034579        1.1938584833
 O         -3.6176666706       -1.7370736239        2.1330513995
 H         -0.0583054857       -0.8297980684        1.8468447440
 C          0.5864892762       -1.4302029241        1.2155940388
 C          0.0179800050       -2.3995836459        0.3977323551
 C          0.8572494801       -3.1517624353       -0.4136489623
 C          2.2262115890       -2.9459556175       -0.3912887625
 C          2.7873564387       -1.9817053776        0.4242813917
 C          1.9539816334       -1.2057357537        1.2208615650
 N          2.5065075639       -0.1937058905        2.0217626993
 S          3.7613391581        0.7230353332        1.4029814928
 O          5.0117755646        0.0421034523        1.6359642544
 O          3.6283618715        2.0153838193        2.0408384481
 C          3.4821706186        0.8630615901       -0.3543929430
 C          4.5261836347        0.6151074061       -1.2229105095
 C          4.3052956035        0.7270516587       -2.5860602746
 C          3.0481255638        1.0752447169       -3.0549887513
 C          2.0102449069        1.3230898868       -2.1703129568
 C          2.2288706279        1.2220257051       -0.8068608859
 H          1.4328825696        1.4014773237       -0.1013557436
 H          1.0254656399        1.5723563923       -2.5297739707
 H          2.8721093806        1.1514051382       -4.1163288921
 H          5.1105918579        0.5355919212       -3.2769075322
 H          5.4829774895        0.3325217101       -0.8142938308
 H          1.8253086831        0.3827356605        2.4925548936
 H          3.8521311608       -1.8158586416        0.4578909351
 H          2.8658480695       -3.5428410281       -1.0230944201
 H          0.4415651727       -3.8914593046       -1.0770550226
 C         -1.4789633484       -2.5882004645        0.4611696215
 H         -1.7242420445       -2.9177228717        1.4851538456
 C         -1.9853984573       -3.6781305281       -0.4740371056
 C         -3.3584471955       -3.6172287137       -1.0723678789
 C         -2.1531540003       -3.4461590631       -1.9446955856
 H         -1.8963056839       -4.2456834290       -2.6240262127
 H         -1.9247401606       -2.4615770723       -2.3202126587
 H         -3.9654434858       -2.7497731941       -0.8564242193
 H         -3.9237107125       -4.5344587447       -1.1446916540
 H         -1.6450080177       -4.6630230399       -0.1697934352
 O         -0.8386901728       -0.4746182045       -1.4684749455
