  62
        -98.93707474
 C         -1.8137501702       -0.1251876103        0.3157152611
 C         -2.7197633001       -0.7448899509       -0.5769009185
 C         -4.0125597302       -0.0607893711       -0.7770765888
 C         -4.2535945402        1.0957244493       -0.1377020096
 C         -5.5139954903        1.9150761892       -0.1682262600
 C         -6.4340731502        1.5399781799        1.0059639702
 C         -7.3789340902        0.3693769996        0.7361094510
 H         -7.8692860001        0.1236938702        1.6809391012
 H         -8.1554085602        0.6895130492        0.0381149708
 C         -6.7153203701       -0.8944649907        0.1828503218
 H         -5.7837433701       -1.0855526103        0.7185245819
 H         -7.3813043501       -1.7362132906        0.3825382123
 C         -6.4456179302       -0.8223307116       -1.3274841483
 H         -6.9892061202        0.0249539981       -1.7452417088
 H         -6.8488062501       -1.7157656419       -1.8086850177
 C         -4.9649690402       -0.7341386118       -1.7276332784
 H         -4.5618949001       -1.7437841918       -1.8529414478
 H         -4.8874657702       -0.2438002824       -2.7036584587
 H         -7.0397482603        2.4098942000        1.2682543097
 H         -5.8005360902        1.3120825504        1.8671659603
 H         -6.0244633303        1.8023269286       -1.1200791800
 H         -5.2101250403        2.9576490093       -0.0524957307
 O         -3.3488159402        1.6666006899        0.7050623400
 C         -2.1257637702        1.0772564401        0.9564803004
 O         -1.4121477502        1.7066922606        1.7645246500
 O         -2.4901866501       -1.8242160613       -1.1824968278
 C         -0.4451009001       -0.7070017700        0.6403084514
 C          0.5234281098       -0.4240086807       -0.4835338988
 C          0.4711098498       -1.1111952414       -1.6923336483
 C          1.3556232398       -0.8053877220       -2.7098867285
 C          2.3195767897        0.1726106681       -2.5387790192
 C          2.3793976097        0.8668866389       -1.3369156996
 C          1.4815491798        0.5675993795       -0.3212139794
 H          1.5253149898        1.1323321501        0.5985351302
 N          3.3473970197        1.8681170591       -1.1333766803
 S          4.2933847797        1.7923963400        0.2455016997
 O          3.5179755298        2.1464120407        1.4061833695
 O          5.4326321997        2.6346890099       -0.0457122008
 C          4.7990549698        0.0843707101        0.3286473708
 C          4.0951095299       -0.7978455895        1.1224341314
 C          4.4486270200       -2.1379491995        1.1103675922
 C          5.4937359700       -2.5694749999        0.3085557224
 C          6.1957470799       -1.6696073404       -0.4791573382
 C          5.8433429298       -0.3300231304       -0.4751656890
 H          6.3678087398        0.4038144993       -1.0655289995
 H          7.0115398399       -2.0082167507       -1.0972386780
 H          5.7633985100       -3.6136908999        0.3007102031
 H          3.9039409100       -2.8385946091        1.7229002426
 H          3.2927937199       -0.4198624691        1.7352910511
 H          3.9264665497        2.0453277086       -1.9420916204
 H          3.0132974897        0.4068708277       -3.3320608994
 H          1.2984700498       -1.3399589626       -3.6458190482
 H         -0.2894427801       -1.8612419916       -1.8387783178
 H         -0.0971545901       -0.1532742895        1.5232157511
 C         -0.5018312100       -2.1801645298        0.9924732324
 C          0.5863584900       -2.7676182992        1.8370971027
 C         -0.7861140200       -2.5775202889        2.4084141226
 H         -1.3999508099       -3.4477051589        2.5862822132
 H         -0.9340237100       -1.7858087185        3.1293842621
 H          0.9190654401       -3.7713847693        1.6230906133
 H          1.3663532000       -2.1027208490        2.1759720523
 H         -0.9277469300       -2.7972999103        0.2134271128
