  62
        -98.94270441
 C         -2.5782032025       -1.2240600598        0.1903241438
 C         -2.7547920084       -0.2900916155       -0.8591607975
 C         -3.8938395242        0.6307306769       -0.7179538117
 C         -4.6920653409        0.5436317113        0.3607992170
 C         -5.8567154288        1.4454573506        0.6471337901
 C         -5.4309560801        2.6586367926        1.4855778810
 C         -4.1965732596        3.3800492558        0.9447482656
 H         -4.0091560479        4.2365539281        1.5958543165
 H         -3.3314440459        2.7180233469        1.0280696088
 C         -4.3278140053        3.8610481349       -0.5071051216
 H         -5.3793285685        3.8892076490       -0.7949823816
 H         -3.9462843517        4.8820813946       -0.5736760408
 C         -3.5468778193        3.0273710517       -1.5248321628
 H         -3.5274237890        3.5761512928       -2.4703578267
 H         -2.5120669082        2.9164063666       -1.1903276013
 C         -4.1115205419        1.6315373931       -1.8183797051
 H         -3.5847122776        1.2369802241       -2.6922538290
 H         -5.1724722489        1.7082075506       -2.0645995736
 H         -6.2698063508        3.3552354177        1.5344847540
 H         -5.2114041355        2.3186188214        2.5001818263
 H         -6.6028719304        0.8748681773        1.2026715070
 H         -6.2931395674        1.7756636318       -0.2935353422
 O         -4.4960268205       -0.3660427192        1.3476467260
 C         -3.4445987942       -1.2615557765        1.2895615499
 O         -3.3876995019       -2.0416344401        2.2607113846
 O         -2.0156319447       -0.2070336165       -1.8783020456
 C         -1.4782131143       -2.2749997345        0.2044794044
 C         -0.1377021130       -1.7052941986        0.6045840101
 C          0.5146406147       -2.1609630559        1.7442885982
 C          1.7622038893       -1.6696079337        2.0867853590
 C          2.3837361136       -0.7149959693        1.3018113669
 C          1.7384086479       -0.2495250847        0.1637925646
 C          0.4891092717       -0.7460366621       -0.1781523485
 H         -0.0093488473       -0.3790206637       -1.0635296189
 N          2.3602754802        0.7316326901       -0.6351813478
 S          3.8498597791        0.3216225236       -1.3016797739
 O          3.9955652356        1.1673227080       -2.4662436408
 O          3.9534133206       -1.1025821009       -1.5244229415
 C          5.0290472631        0.8276252612       -0.0669764365
 C          5.0717888668        2.1616405895        0.2884113373
 C          5.9902495088        2.5705008786        1.2421467417
 C          6.8473103866        1.6446122853        1.8185817814
 C          6.7943631859        0.3095575562        1.4481127495
 C          5.8771046510       -0.1062230505        0.4955150799
 H          5.7955417274       -1.1337779228        0.1790998010
 H          7.4618419982       -0.4084918070        1.8968231180
 H          7.5612428874        1.9657064448        2.5605885554
 H          6.0351901471        3.6078551037        1.5324199021
 H          4.3922325079        2.8485531185       -0.1878843580
 H          1.7514464977        1.0842734102       -1.3610879678
 H          3.3549185978       -0.3279697757        1.5640549840
 H          2.2562281917       -2.0338298692        2.9745488449
 H          0.0321073575       -2.9010066275        2.3663046459
 H         -1.7758776626       -2.9963011512        0.9772050064
 C         -1.3596562525       -3.0156188782       -1.1152143351
 C         -0.7259953167       -4.3725148364       -1.1317340605
 C         -2.2014561660       -4.2307428579       -1.3546020879
 H         -2.5945080355       -4.3977301850       -2.3462410669
 H         -2.8686371529       -4.5395592227       -0.5627920692
 H         -0.0996538371       -4.6373653756       -1.9698816528
 H         -0.3930332249       -4.7803814085       -0.1893102953
 H         -1.1757054863       -2.3648825577       -1.9600857676
