  62
        -98.94308937
 C         -1.7670534043       -1.4106702893       -0.0643437400
 C         -3.0752932482       -1.1977984553        0.4481297647
 C         -3.8345233856       -0.0890447100       -0.1390224715
 C         -3.2736483945        0.6668162881       -1.0995261877
 C         -3.9151417486        1.8339148800       -1.7993453300
 C         -3.8034431391        3.1581165400       -1.0311979634
 C         -4.6938046495        3.2685908743        0.2071088509
 H         -4.6825458629        4.3153523898        0.5172718713
 H         -5.7212500797        3.0209014336       -0.0616763958
 C         -4.2446547533        2.3991964868        1.3900599835
 H         -4.2737003644        2.9905332629        2.3079824684
 H         -3.2074626356        2.0891654691        1.2426621148
 C         -5.1033526138        1.1565999815        1.6262554160
 H         -4.6750501402        0.5978166174        2.4622850164
 H         -6.1153243275        1.4574268712        1.9065961739
 C         -5.1919333149        0.2105779551        0.4214191617
 H         -5.6302612724       -0.7323012440        0.7578708967
 H         -5.8344878493        0.6393176346       -0.3475483732
 H         -4.0772353690        3.9590611890       -1.7217856680
 H         -2.7608582205        3.3090679214       -0.7427059565
 H         -3.4004069419        1.9454305931       -2.7562334262
 H         -4.9648415613        1.6126852898       -1.9947077481
 O         -2.0218912700        0.4326065569       -1.5679968939
 C         -1.2325814120       -0.5973280218       -1.0658059404
 O         -0.1142612782       -0.6626053217       -1.6078092033
 H          1.4668440225       -2.4907454559       -0.6828657979
 C          1.4986362685       -1.9695819595        0.2608973097
 C          0.3639014984       -1.9163373002        1.0541117866
 C          0.4209152551       -1.2195513456        2.2574634061
 C          1.5884547936       -0.5963505740        2.6579944228
 C          2.7121831826       -0.6263123174        1.8504314016
 C          2.6555743355       -1.3010657372        0.6379562103
 N          3.7669096322       -1.2822260997       -0.2212348256
 S          4.6104504040        0.1529217526       -0.3739758759
 O          5.1599699486        0.1315123120       -1.7124968806
 O          5.5830452927        0.2459628185        0.6892568239
 C          3.4373213306        1.4921178963       -0.2074456634
 C          3.7898291352        2.5776702554        0.5706104553
 C          2.9055686741        3.6370582923        0.6910051174
 C          1.6838059525        3.5931406937        0.0369404529
 C          1.3457857809        2.4967531516       -0.7400715938
 C          2.2286666900        1.4362289788       -0.8715898868
 H          1.9532883159        0.5757611188       -1.4604848256
 H          0.3936063142        2.4439981806       -1.2451985177
 H          0.9914991752        4.4147518415        0.1341859523
 H          3.1687347749        4.4898130090        1.2959473206
 H          4.7444245517        2.5651836220        1.0715299081
 H          3.5794821616       -1.6866720622       -1.1272996881
 H          3.6268075785       -0.1329890446        2.1381201020
 H          1.6225147507       -0.0699343755        3.5995422086
 H         -0.4662285039       -1.1645182665        2.8729134165
 C         -0.9423959367       -2.5067778343        0.5917369817
 H         -1.5276330164       -2.7888600847        1.4813529073
 C         -0.7664797818       -3.7760393978       -0.2274713620
 C         -1.9261396720       -4.3512249083       -0.9834864556
 C         -0.7447263929       -3.8052275307       -1.7249336398
 H         -0.0771691691       -4.5044935058       -2.2079002571
 H         -0.8544975958       -2.8736095587       -2.2564484516
 H         -2.8417583501       -3.7777571533       -0.9931217504
 H         -2.0786559071       -5.4197592655       -0.9664676840
 H         -0.1184028539       -4.4870425844        0.2767991529
 O         -3.5847655528       -1.9045241761        1.3572754661
