  62
        -98.94789404
 C         -0.9959459258       -0.9757287041        0.7173338785
 C         -1.6384126336       -0.8784823911       -0.5402113360
 C         -2.3218152024        0.3924850837       -0.8085841718
 C         -2.2480327581        1.3943375372        0.0852227893
 C         -2.8513213586        2.7648467918       -0.0675604167
 C         -4.3331125698        2.8462200055        0.3247000297
 C         -5.3044735700        2.1880133571       -0.6556834957
 H         -6.3095552435        2.5084445372       -0.3743733891
 H         -5.1126324796        2.5628810603       -1.6615956607
 C         -5.2582635664        0.6537219482       -0.6588930482
 H         -4.7566742445        0.3022755149        0.2454934766
 H         -6.2762221506        0.2584701244       -0.6360982865
 C         -4.5627663813        0.0440426454       -1.8761617188
 H         -4.5525288083       -1.0424206357       -1.7579999338
 H         -5.1299201059        0.2791681889       -2.7795975054
 C         -3.1146395518        0.5112841670       -2.0742593148
 H         -3.0940853699        1.5377195039       -2.4413508378
 H         -2.6400560162       -0.1312609539       -2.8204391414
 H         -4.4564389641        2.4001364743        1.3140998927
 H         -4.5908838091        3.9050213201        0.4018399286
 H         -2.7230579456        3.1055850499       -1.0959185053
 H         -2.2857732674        3.4298149616        0.5892591369
 O         -1.5717851075        1.2806288177        1.2597909720
 C         -0.9369505363        0.0970792869        1.6051740568
 O         -0.3574838639        0.1290294862        2.7097928408
 O         -1.6455226989       -1.8031480240       -1.3946065792
 C         -0.2313328204       -2.2361747023        1.0832931215
 C          0.8867406925       -2.4256004223        0.0860402427
 C          1.1762100819       -3.6296418711       -0.5411100913
 C          2.1949099884       -3.7001295904       -1.4765619202
 C          2.9305732815       -2.5790706546       -1.8144335187
 C          2.6574433838       -1.3722509080       -1.1796878763
 C          1.6615531265       -1.3140833515       -0.2207082766
 H          1.4534122111       -0.3758628049        0.2728585744
 N          3.3841130476       -0.2089746783       -1.4742153313
 S          2.6148340333        1.2769165479       -1.4339690446
 O          1.2428071947        1.1946057083       -1.8790284852
 O          3.4782622252        2.1423608532       -2.2123162034
 C          2.6912927359        1.7784201320        0.2715108936
 C          3.8528699096        1.5595322846        0.9851262010
 C          3.9109051422        1.9717620533        2.3065521710
 C          2.8161049277        2.5941443074        2.8870533355
 C          1.6603297363        2.8136545016        2.1546346829
 C          1.5970234700        2.4049575606        0.8326159266
 H          0.7102341665        2.5392514802        0.2319004034
 H          0.8029000589        3.2844087670        2.6080375403
 H          2.8590752730        2.9068166899        3.9183977581
 H          4.8067002052        1.8021430958        2.8820970327
 H          4.6805838320        1.0672739908        0.5024978505
 H          4.0272155109       -0.2854058651       -2.2486960891
 H          3.7053068368       -2.6316826246       -2.5640813408
 H          2.4068435910       -4.6397271282       -1.9639857233
 H          0.5970130610       -4.5084744702       -0.3099719456
 H          0.2180659725       -2.0450423851        2.0689787904
 C         -1.1628235278       -3.4243108219        1.1896144247
 C         -0.8237624266       -4.5682617122        2.0962414133
 C         -1.9330093738       -3.6283521788        2.4584569224
 H         -2.9518499992       -3.9794338607        2.3923757335
 H         -1.7660071072       -2.9213987156        3.2582662060
 H         -1.0837717714       -5.5684340223        1.7840564284
 H          0.0958967321       -4.5051871640        2.6578761571
 H         -1.6694435844       -3.6402781453        0.2561688891
