  62
        -98.94320561
 C         -1.1995753850       -1.6023414459       -0.3556916484
 C          0.0030388117       -1.4820548655       -1.0873960652
 C          1.1978538261       -2.1399283593       -0.5274429747
 C          1.0907598873       -2.7729187141        0.6551325018
 C          2.1667207000       -3.5009207638        1.4170481160
 C          3.1224385325       -2.5498355489        2.1567967087
 C          3.5297234519       -1.3078575040        1.3679699114
 H          2.6253483718       -0.7662313123        1.0806158970
 H          4.0858197998       -0.6526909519        2.0456595460
 C          4.4075064426       -1.5698714445        0.1456502732
 H          5.3374994761       -2.0394118583        0.4755607074
 H          4.6640775506       -0.5994216784       -0.2874542623
 C          3.7949482259       -2.4399518436       -0.9528735089
 H          3.7861077567       -3.4851804711       -0.6560486269
 H          4.4517760531       -2.3699961046       -1.8249277460
 C          2.4079271564       -2.0097839154       -1.4202623424
 H          2.4387483602       -0.9562309642       -1.7190300501
 H          2.1638630221       -2.5638487647       -2.3350935211
 H          2.6202025652       -2.2065936586        3.0647286198
 H          4.0122392851       -3.1094172243        2.4514972698
 H          1.6599645596       -4.1260896258        2.1556304424
 H          2.7128005611       -4.1578463283        0.7458695826
 O         -0.0754601211       -2.8074037121        1.3600068190
 C         -1.2333344744       -2.2104882836        0.8977864827
 O         -2.2048296340       -2.3041456303        1.6738565238
 O          0.0815016383       -0.8492521154       -2.1764977045
 C         -2.4523793014       -0.9290838831       -0.8922175522
 C         -2.7545623955        0.2602795344       -0.0150443100
 C         -3.9692741714        0.4843969884        0.6174549784
 C         -4.1237497764        1.5730413397        1.4599463704
 C         -3.0758128907        2.4426254729        1.7003158474
 C         -1.8598684367        2.2325468716        1.0584662071
 C         -1.7209393645        1.1664936684        0.1880574780
 H         -0.7767999906        1.0053350845       -0.3108108604
 N         -0.7668044769        3.0897936157        1.2571532136
 S          0.7867390465        2.4680987449        1.2055352192
 O          0.8462661804        1.1069488250        1.6867054629
 O          1.5838127681        3.4273563245        1.9445882399
 C          1.2681105690        2.5471599052       -0.5075805488
 C          0.5743056565        3.3345101095       -1.4036194184
 C          1.0105946657        3.3925119800       -2.7180219557
 C          2.1289365406        2.6750074458       -3.1113634753
 C          2.8197260016        1.8957745360       -2.1971893512
 C          2.3870027447        1.8311656091       -0.8828435433
 H          2.8888168854        1.2310859918       -0.1402472607
 H          3.6896134921        1.3364144819       -2.5039067524
 H          2.4629133887        2.7189737420       -4.1359587506
 H          0.4728917371        3.9954502737       -3.4321054859
 H         -0.2969790703        3.8745889613       -1.0719907096
 H         -0.8787259005        3.7753916611        1.9893263906
 H         -3.1913542997        3.2725573703        2.3806338778
 H         -5.0704386050        1.7351828513        1.9527938580
 H         -4.7882798399       -0.1992322193        0.4661705249
 H         -2.1764850953       -0.5555215029       -1.8894665314
 C         -3.5988300080       -1.9052801607       -1.0300834787
 C         -4.7020462101       -1.6286968366       -2.0063559980
 C         -3.7138038506       -2.7205235787       -2.2821015656
 H         -4.0391805857       -3.7466142490       -2.1994786544
 H         -2.9723974383       -2.5585956403       -3.0507919516
 H         -5.7098687841       -1.9066906364       -1.7376731346
 H         -4.6342718412       -0.7248536099       -2.5924024209
 H         -3.8507608813       -2.3901876586       -0.0941815295
