  62
        -98.93129201
 C         -2.5554367150       -1.1590394615        0.4896373899
 C         -3.4138452168       -0.7866692063       -0.5731798262
 C         -4.5766278717        0.0468633412       -0.2083360139
 C         -4.7628470035        0.4110996804        1.0707366992
 C         -5.8881866651        1.2199035994        1.6662569310
 C         -6.3584027137        2.4596987407        0.8932171389
 C         -5.2583409474        3.1952789425        0.1141872638
 H         -5.2942327284        4.2565654007        0.3671862738
 H         -4.2762326451        2.8229991404        0.4110004837
 C         -5.4148205402        3.0690009680       -1.4031618173
 H         -6.4688299117        3.1985833439       -1.6586288823
 H         -4.8605819973        3.8800011701       -1.8816895085
 C         -4.9110178110        1.7589953962       -2.0073542561
 H         -5.1812794929        1.7507041123       -3.0660079564
 H         -3.8195477226        1.7235049136       -1.9553358662
 C         -5.4507203014        0.4774670936       -1.3512988499
 H         -5.3982613035       -0.3259857122       -2.0910176786
 H         -6.4862021527        0.5981538817       -1.0427747074
 H         -7.1543279441        2.1798793637        0.2044292045
 H         -6.8012693762        3.1372737566        1.6252316892
 H         -5.5290220459        1.5190396066        2.6539295309
 H         -6.7402286456        0.5519212212        1.8231525639
 O         -3.9061378772        0.0338354886        2.0629157600
 C         -2.7951914550       -0.7446680971        1.8014126873
 O         -2.1065909194       -1.0082181270        2.8089839220
 O         -3.2455812629       -1.1273933109       -1.7708496395
 C         -1.3179415543       -2.0205577489        0.2976937747
 C         -0.1301451414       -1.1685354942       -0.0687601797
 C         -0.1634116986       -0.3124550441       -1.1655244925
 C          0.9395901373        0.4576650960       -1.4857349532
 C          2.0915627806        0.3971944450       -0.7205077867
 C          2.1341501964       -0.4497690889        0.3782128121
 C          1.0267207715       -1.2270620499        0.6940395841
 H          1.0602627017       -1.8782413606        1.5577026827
 N          3.2952626970       -0.5021982808        1.1673290805
 S          4.7689313831       -0.7496065715        0.4006913292
 O          4.6017663090       -1.4872277577       -0.8296784151
 O          5.6188411100       -1.3526604552        1.4035684278
 C          5.3562133936        0.8947515980        0.0546140470
 C          5.4918276807        1.7738777726        1.1111594314
 C          5.9569195125        3.0547145381        0.8599209615
 C          6.2795992341        3.4315792425       -0.4354056974
 C          6.1413405987        2.5360140965       -1.4847383105
 C          5.6755881256        1.2533870138       -1.2402879306
 H          5.5479389080        0.5249417197       -2.0252569317
 H          6.3935151345        2.8308414318       -2.4907219141
 H          6.6414862454        4.4292362994       -0.6279356382
 H          6.0660892934        3.7539959722        1.6732273521
 H          5.2343744857        1.4410593718        2.1028970596
 H          3.2095103327       -1.0925156730        1.9820515137
 H          2.9521509808        0.9977478087       -0.9660831248
 H          0.9019372171        1.1154188805       -2.3409344417
 H         -1.0605900682       -0.2648808783       -1.7639056557
 H         -1.1184627738       -2.4537047617        1.2909110604
 C         -1.5433252798       -3.1840705133       -0.6591905986
 C         -0.8734044219       -3.3186027620       -1.9901770809
 C         -0.4612730834       -4.2049746506       -0.8561180905
 H         -0.7306556571       -5.2499642593       -0.8838900777
 H          0.4963705541       -4.0085895220       -0.3958454030
 H         -1.4520314847       -3.7400700376       -2.7978228764
 H         -0.1887605387       -2.5466159360       -2.3035808484
 H         -2.5580305411       -3.5637731079       -0.5968120094
