  62
        -98.94156783
 C          1.5316772892        0.6885200303        0.9538603783
 C          2.7719040832        1.1239658235        0.4268491843
 C          3.8192888584        0.0967261204        0.3333884768
 C          3.5650348436       -1.1658740246        0.7195221949
 C          4.5368816377       -2.3144622749        0.6968808294
 C          4.6510339855       -3.0113992647       -0.6658720835
 C          5.3914650170       -2.2180589283       -1.7433513164
 H          6.3561056113       -1.8908138219       -1.3540942901
 H          5.5899299521       -2.9056180073       -2.5680166015
 C          4.6158587707       -1.0090959671       -2.2852290497
 H          3.5595994842       -1.1049958681       -2.0228572299
 H          4.6741085999       -0.9978693599       -3.3759954353
 C          5.1261228844        0.3443182335       -1.7908371756
 H          4.4815523812        1.1247876237       -2.2029478516
 H          6.1393366477        0.5125839712       -2.1628164052
 C          5.1351869105        0.4953185823       -0.2642918641
 H          5.9434379356       -0.0944445110        0.1675735517
 H          5.3033929175        1.5483509400       -0.0257341114
 H          3.6463788313       -3.2547037680       -1.0190441374
 H          5.1845991782       -3.9513451529       -0.5067436346
 H          4.1741537223       -3.0420925598        1.4259836015
 H          5.5211642053       -1.9675975534        1.0129439772
 O          2.3557392585       -1.5482455514        1.2092996555
 C          1.3140803968       -0.6433961117        1.3217867501
 O          0.2582397617       -1.1350398743        1.7670034368
 O          3.0203232100        2.3006894800        0.0551471407
 C          0.3315331242        1.6098233136        1.1098686323
 C         -0.3610802151        1.7549280544       -0.2238359863
 C          0.1292515014        2.5841938358       -1.2267824745
 C         -0.5277342402        2.6697926956       -2.4407086995
 C         -1.6852586784        1.9475664499       -2.6725272793
 C         -2.1766435795        1.1068876604       -1.6801495893
 C         -1.5065039822        1.0107059042       -0.4694099402
 H         -1.8785707790        0.3457529232        0.2948533508
 N         -3.3285683962        0.3395237901       -1.8953487211
 S         -4.3802906202       -0.0064489756       -0.6430407240
 O         -5.6172305557       -0.3595303374       -1.3074559847
 O         -4.4606705003        1.0831852343        0.3019197532
 C         -3.7024821653       -1.4597056212        0.1268180189
 C         -3.5101278097       -1.4869122741        1.4930795274
 C         -2.9962331237       -2.6338078971        2.0756793981
 C         -2.6883002197       -3.7289342985        1.2848322003
 C         -2.8918419881       -3.6878569619       -0.0861254846
 C         -3.4048110345       -2.5437062754       -0.6744347915
 H         -3.5767807041       -2.4741137305       -1.7358189077
 H         -2.6480876143       -4.5425465606       -0.6967777439
 H         -2.2824939042       -4.6181130799        1.7410041118
 H         -2.8292699125       -2.6645735695        3.1402443706
 H         -3.7543850152       -0.6096129722        2.0718263237
 H         -3.8099994432        0.5169672019       -2.7643810918
 H         -2.2025115993        2.0267554787       -3.6167557831
 H         -0.1390285958        3.3143415895       -3.2147975809
 H          1.0386263535        3.1382937893       -1.0560610543
 H         -0.3604913748        1.0841272856        1.7819595010
 C          0.6697504285        2.9496987697        1.7306578095
 C         -0.4475707761        3.7904509919        2.2687043035
 C          0.5141320331        3.1296177714        3.2092455278
 H          1.2308428046        3.7457378863        3.7312755357
 H          0.1656276746        2.2834993155        3.7838528353
 H         -0.3929261798        4.8612307636        2.1454527322
 H         -1.4495415725        3.3919903136        2.2003164522
 H          1.4993489785        3.4552579761        1.2556024551
