  62
        -98.93443577
 C         -2.3562526173       -0.7189974183       -0.0969930622
 C         -3.4908941561       -1.0775290404        0.6654716423
 C         -4.7960500150       -0.6302838991        0.1492563195
 C         -4.8369361984        0.0711306870       -0.9971913887
 C         -6.0477898566        0.6643596476       -1.6631726623
 C         -6.2511129354        2.1238661463       -1.2217518467
 C         -7.0763529780        2.3030392195        0.0519544438
 H         -7.0342967343        3.3612406750        0.3199532142
 H         -8.1197026738        2.0598829641       -0.1595039470
 C         -6.6151352920        1.4732494402        1.2529180373
 H         -7.0105408996        1.9423036042        2.1560086152
 H         -5.5263002482        1.5027653076        1.3241488758
 C         -7.0954310449        0.0153765889        1.1996025473
 H         -7.5777569412       -0.2412116749        2.1451027058
 H         -7.8585273549       -0.0803434366        0.4275112121
 C         -5.9934087716       -1.0290555454        0.9686194785
 H         -5.5766541791       -1.3375434320        1.9326792697
 H         -6.4379913394       -1.9244514083        0.5215190041
 H         -6.7504359544        2.6668324800       -2.0267256530
 H         -5.2637325902        2.5733225958       -1.0880792400
 H         -5.8495230904        0.6501571273       -2.7368101338
 H         -6.9308387648        0.0654103091       -1.4616175579
 O         -3.7173227772        0.3908193494       -1.7043458225
 C         -2.4555477776        0.0118303727       -1.2802754607
 O         -1.5281875057        0.3776547274       -2.0269967947
 H          1.6546940107       -0.8254915139       -0.3715927987
 C          1.2447043727        0.0291763889        0.1396577070
 C         -0.0727331947        0.0332111129        0.5686018122
 C         -0.5526376581        1.1618342209        1.2290446927
 C          0.2612133733        2.2574147002        1.4400612247
 C          1.5793622864        2.2450027379        1.0185237502
 C          2.0706901948        1.1224905124        0.3642390008
 N          3.3989262142        1.0789016583       -0.0887684889
 S          4.2169983649       -0.3971414014       -0.0240799292
 O          3.9196651825       -1.1516915741       -1.2153918642
 O          3.9502318761       -1.0561542015        1.2343380462
 C          5.9084997366        0.1669617224       -0.0774188620
 C          6.6169343630        0.2952434008        1.1024748548
 C          7.9223259475        0.7586207846        1.0538603173
 C          8.4931588798        1.0867182304       -0.1666275570
 C          7.7698162324        0.9523428028       -1.3425637926
 C          6.4645781619        0.4885083398       -1.3013536400
 H          5.8672018351        0.3590531239       -2.1888874128
 H          8.2180158649        1.2057639843       -2.2897175033
 H          9.5093056224        1.4465391265       -0.2021294307
 H          8.4882495327        0.8608307344        1.9657577952
 H          6.1351163784        0.0191616473        2.0266275526
 H          3.9629245538        1.8378475832        0.2684552842
 H          2.2177696136        3.0985271464        1.1890324476
 H         -0.1300396808        3.1267214068        1.9472271410
 H         -1.5784053862        1.1679797459        1.5726016555
 C         -0.9837779838       -1.1543328549        0.3781648805
 H         -1.1463968142       -1.6163075749        1.3644412492
 C         -0.4154067337       -2.2019679436       -0.5563070566
 C          0.5408664059       -3.2358852715       -0.0441195075
 C         -0.8577209467       -3.6262788557       -0.4139490470
 H         -1.0117629839       -4.2106201983       -1.3085989791
 H         -1.5531274490       -3.8507943911        0.3816451933
 H          0.8028173652       -3.1995405478        1.0029748431
 H          1.3544699880       -3.5447970671       -0.6839966477
 H         -0.2632209257       -1.8224354348       -1.5614037964
 O         -3.4168387177       -1.7347535801        1.7397035181
