  62
        -98.93693926
 C         -1.9857069398       -0.8230330911        0.5876317353
 C         -2.1497630982       -0.1028319077       -0.6184628882
 C         -2.3626609752        1.3482647830       -0.4873469391
 C         -2.3513857824        1.9094687549        0.7335379778
 C         -2.4824648042        3.3673796356        1.0991477518
 C         -3.5362327421        4.1964835333        0.3524144136
 C         -4.8039627637        3.4267280312       -0.0458447207
 H         -4.8226662373        2.4559639023        0.4524089725
 H         -5.6785910272        3.9848486743        0.2931571467
 C         -4.9306047873        3.2269900409       -1.5579141677
 H         -4.6563806742        4.1583324347       -2.0578555917
 H         -5.9763522247        3.0215333542       -1.7983937959
 C         -4.0996807668        2.0839341599       -2.1395705041
 H         -4.5127829974        1.1242354460       -1.8178547024
 H         -4.1884788534        2.1228649832       -3.2277893476
 C         -2.6077099832        2.0936837047       -1.7677866741
 H         -2.0627421176        1.5442691131       -2.5403943864
 H         -2.2160875773        3.1070919482       -1.7236052920
 H         -3.0898577013        4.6327731487       -0.5399404390
 H         -3.8043919631        5.0267146115        1.0080158541
 H         -2.7035110946        3.3719940566        2.1694831431
 H         -1.4997447752        3.8320634257        0.9729394268
 O         -2.1712662969        1.1776964192        1.8712103399
 C         -1.9762332171       -0.1912286496        1.8280108169
 O         -1.8157002883       -0.7253054313        2.9468911756
 H          0.5058181181       -0.8345720466        0.4933904905
 C          0.6046839280       -1.7115193826       -0.1305461251
 C         -0.4578698414       -2.5998274051       -0.2365015117
 C         -0.3014692094       -3.7284267208       -1.0312283115
 C          0.8871581859       -3.9488678475       -1.7059415008
 C          1.9365309710       -3.0547945274       -1.6082360926
 C          1.7875379864       -1.9178045902       -0.8196247999
 N          2.8150631794       -0.9631881340       -0.7497345820
 S          2.8597541307        0.1800062969        0.4811594761
 O          2.8538960010       -0.4656167307        1.7765061164
 O          1.8330280194        1.1654880800        0.2475091933
 C          4.4620268217        0.8949105765        0.1635656171
 C          4.5830609870        1.8116268173       -0.8639032178
 C          5.8300637508        2.3502995607       -1.1379974399
 C          6.9295759154        1.9652407766       -0.3849592203
 C          6.7925732662        1.0460136863        0.6441605265
 C          5.5480934644        0.5023902150        0.9225950468
 H          5.3907717799       -0.2089258418        1.7173903596
 H          7.6481028658        0.7511653054        1.2300433109
 H          7.8987744938        2.3866763311       -0.5998994729
 H          5.9395042567        3.0671503131       -1.9356930751
 H          3.6982575141        2.0855853157       -1.4148638650
 H          3.7292665495       -1.3319592603       -0.9699577013
 H          2.8587426523       -3.2243211511       -2.1420848725
 H          0.9966439461       -4.8308336168       -2.3185726447
 H         -1.1106897077       -4.4343985400       -1.1226043793
 C         -1.7186657076       -2.3150179792        0.5465240529
 H         -1.5431178533       -2.6206864108        1.5898413113
 C         -2.9299908344       -3.0559333241        0.0162073596
 C         -3.2665188843       -4.4254108406        0.5226750154
 C         -4.1081032805       -3.2515952835        0.9210592177
 H         -5.1000099957       -3.1592267569        0.5049696023
 H         -4.0213722061       -2.8765768753        1.9309815609
 H         -3.6857253358       -5.1418405821       -0.1676644942
 H         -2.6172581288       -4.8563674812        1.2699976288
 H         -3.1295033993       -2.8281206100       -1.0245229986
 O         -2.1109118751       -0.6423969561       -1.7553269953
