  62
        -98.94386237
 C         -1.7195019597       -1.3095839825       -0.0015160912
 C         -0.9744016487       -1.9288894687       -1.0326165146
 C          0.2602431192       -2.6304847015       -0.6332640587
 C          0.5824774105       -2.7048022430        0.6716238055
 C          1.7326274768       -3.3834520208        1.3870611143
 C          2.8852385196       -3.9941195595        0.5964506195
 C          3.8168389986       -2.9702196472       -0.0566337996
 H          4.4330738426       -2.5193932176        0.7250371178
 H          4.4828051273       -3.4941128484       -0.7450152884
 C          3.1280826844       -1.8285614273       -0.8007411527
 H          2.4772203454       -1.2809770419       -0.1165241749
 H          3.8955621624       -1.1229268766       -1.1321702597
 C          2.3196947467       -2.2298747166       -2.0322763258
 H          2.9699316121       -2.7261465499       -2.7564193896
 H          1.9492085387       -1.3066013665       -2.4890977924
 C          1.1110627924       -3.1384425332       -1.7607816200
 H          0.4764316306       -3.1285501975       -2.6523084533
 H          1.4225095496       -4.1665329021       -1.5932454485
 H          3.4811348671       -4.5742612123        1.3059036223
 H          2.5022652560       -4.6967517717       -0.1379037006
 H          2.1338301668       -2.6454171671        2.0888259001
 H          1.2728464583       -4.1701421351        1.9950219862
 O         -0.2052854784       -2.1448195798        1.6368919669
 C         -1.3267300157       -1.3874213282        1.3326219620
 O         -1.8673503753       -0.8617005475        2.3227868570
 H         -0.9340815847        0.8875383050       -1.4915943906
 C         -1.4611951623        1.5043765710       -0.7777116633
 C         -2.5648303928        0.9862625898       -0.1084463055
 C         -3.2453067374        1.8027140361        0.7843971247
 C         -2.8123035844        3.0978941231        1.0128675655
 C         -1.6919151192        3.5961704279        0.3740984924
 C         -1.0078124983        2.7900525782       -0.5303680539
 N          0.1268734386        3.2731249359       -1.2060826358
 S          1.5163301267        2.3523523617       -1.3352423510
 O          2.5005975645        3.2679597329       -1.8699521410
 O          1.2602435322        1.1676824138       -2.1102506746
 C          1.9557094298        1.9308968816        0.3403990822
 C          2.9149047602        2.6843147070        0.9888130689
 C          3.2233039264        2.3891344156        2.3068125060
 C          2.5598652490        1.3595305771        2.9574381024
 C          1.5948503626        0.6161937711        2.2956556418
 C          1.2918905559        0.8994280601        0.9731745696
 H          0.5471981430        0.3339729380        0.4342498809
 H          1.0623204029       -0.1779658068        2.7966383381
 H          2.7927818732        1.1324623221        3.9858206351
 H          3.9751646624        2.9633112125        2.8238053459
 H          3.4045697807        3.4747922089        0.4434472930
 H          0.3663444984        4.2278454975       -0.9794011571
 H         -1.3481484672        4.6009541843        0.5673317395
 H         -3.3477922980        3.7233241740        1.7107393215
 H         -4.1070550542        1.4234716912        1.3077501687
 C         -2.9211662363       -0.4571093352       -0.3747578855
 H         -3.0408202078       -0.5826641021       -1.4608444674
 C         -4.1833265030       -0.9235877401        0.3153033889
 C         -5.5201368533       -0.5673587853       -0.2610401986
 C         -5.0225171143       -1.9785348188       -0.3385219101
 H         -5.4878495947       -2.7264090471        0.2858254787
 H         -4.6932530359       -2.3543579703       -1.2964754445
 H         -6.3319265025       -0.3469962348        0.4152871212
 H         -5.5318988502        0.0160828722       -1.1693578546
 H         -4.0843956737       -0.9645792002        1.3935162256
 O         -1.3268145855       -1.8985311431       -2.2427974960
