  62
        -98.95138215
 C         -1.8110534917       -1.2719486121       -0.2863736096
 C         -2.9082238151       -0.6015834231        0.3013598879
 C         -3.2402699295        0.7052170513       -0.2744825206
 C         -2.5237335561        1.1805581058       -1.3096237561
 C         -2.7275120935        2.5056384974       -1.9915516632
 C         -2.0256301405        3.6673289564       -1.2742925985
 C         -2.7005331692        4.1318740031        0.0170017261
 H         -2.2547691794        5.0924308234        0.2833329150
 H         -3.7625653500        4.3024234170       -0.1657137039
 C         -2.5242994058        3.1673380788        1.1982092526
 H         -2.2536611030        3.7347070218        2.0925240756
 H         -1.6884277418        2.4933386560        0.9922450169
 C         -3.7690253820        2.3482676937        1.5429252928
 H         -3.5136609627        1.6690564669        2.3606803080
 H         -4.5591034070        3.0162879236        1.8946694160
 C         -4.3213190829        1.5083007986        0.3839377065
 H         -5.0556158136        0.8077704873        0.7900950255
 H         -4.8156041824        2.1512917758       -0.3439399321
 H         -0.9972755644        3.3693905546       -1.0524142497
 H         -1.9908740867        4.5108066701       -1.9681817747
 H         -3.7931036512        2.7186048970       -2.0825870404
 H         -2.3025668600        2.4105613982       -2.9930865954
 O         -1.5083783935        0.4826494992       -1.8796549369
 C         -1.0931806216       -0.7267684079       -1.3501255193
 O         -0.0988372144       -1.2225942664       -1.9168634243
 O         -3.5696753365       -1.0691271107        1.2690644429
 C         -1.3208440844       -2.5722578704        0.3232516563
 C          0.1154067055       -2.4118836879        0.7603472309
 C          1.0745462872       -3.4077036058        0.6226441112
 C          2.3844477824       -3.1810562638        1.0102936128
 C          2.7726216166       -1.9527443802        1.5136347075
 C          1.8177870743       -0.9544697039        1.6644900484
 C          0.4994320406       -1.2014475676        1.3234067565
 H         -0.2274174953       -0.4131535079        1.4552031678
 N          2.1530734146        0.3374121374        2.1278613274
 S          2.0145833262        1.5607540737        0.9839035649
 O          2.4808127547        2.7576021642        1.6518961259
 O          0.6732900430        1.6031366533        0.4653802044
 C          3.1894302564        1.0914388321       -0.2736786704
 C          2.8334686977        0.1606745816       -1.2287603133
 C          3.7951817725       -0.2594673536       -2.1361890371
 C          5.0829322046        0.2489733827       -2.0723227420
 C          5.4226550838        1.1844878594       -1.1060859671
 C          4.4700231448        1.6059441732       -0.1935167187
 H          4.6855214721        2.3323101416        0.5736712128
 H          6.4238502164        1.5816338026       -1.0590770822
 H          5.8245771265       -0.0850983501       -2.7807133350
 H          3.5223134998       -0.9861979583       -2.8845354669
 H          1.8242296085       -0.2206425961       -1.2677902586
 H          3.0720502546        0.3904816104        2.5472769674
 H          3.8008752487       -1.7638978612        1.7834705695
 H          3.1176305163       -3.9647254113        0.8964169117
 H          0.7972742280       -4.3609584678        0.2029029699
 H         -1.9433965719       -2.7327297497        1.2166614575
 C         -1.5299589210       -3.7290372128       -0.6320719411
 C         -1.8102649129       -5.1056740513       -0.1092943215
 C         -2.9019212411       -4.3166057557       -0.7653026698
 H         -3.2419593146       -4.6160395451       -1.7452198161
 H         -3.6798177202       -3.8992524164       -0.1426039469
 H         -1.4027367534       -5.9520408872       -0.6413971554
 H         -1.8551850990       -5.2352865375        0.9614994152
 H         -0.9369547457       -3.6321746271       -1.5346239828
