  62
        -98.92998456
 C          2.4206236794        1.0250235099        0.3728544305
 C          2.6802215194       -0.2859033803        0.8429629698
 C          3.8973970794       -0.9516828700        0.3466516596
 C          4.6636462595       -0.3131244895       -0.5556915200
 C          5.9470400096       -0.7690274292       -1.2028056101
 C          6.0029277797       -2.2279152489       -1.6809462608
 C          6.9206987396       -3.1115265693       -0.8340535512
 H          7.2494068997       -3.9573776190       -1.4419956016
 H          7.8102186096       -2.5357375494       -0.5700010508
 C          6.2886661795       -3.6753729400        0.4373443284
 H          5.5615896395       -4.4448348399        0.1688637480
 H          7.0802888194       -4.1626675103        1.0114282983
 C          5.5948164494       -2.6479523805        1.3338222989
 H          5.5539632793       -3.0600911210        2.3443496187
 H          6.1810090893       -1.7312394005        1.3882084295
 C          4.1562272394       -2.3258756103        0.9015378689
 H          3.8071322495       -3.0701212899        0.1800643885
 H          3.4865326493       -2.4063112508        1.7633603788
 H          6.3865200498       -2.2274632284       -2.7025293208
 H          4.9980842797       -2.6459199689       -1.7149133311
 H          6.0899383197       -0.0950711887       -2.0505872297
 H          6.7698472395       -0.5746384095       -0.5100580699
 O          4.3577573495        0.9350130907       -1.0077589693
 C          3.2515460395        1.6396372505       -0.5632794991
 O          3.1429376695        2.7696382907       -1.0759081885
 H         -0.9346925107        0.0859325795        0.9931346997
 C         -0.9742784206        0.7374265100        0.1296612600
 C          0.0529803094        1.6483057501       -0.0752022294
 C          0.0029552095        2.4668165107       -1.1980746690
 C         -1.0529533404        2.3689777111       -2.0863110091
 C         -2.0766798004        1.4614503110       -1.8777985697
 C         -2.0345849905        0.6365083804       -0.7618850702
 N         -3.0646832105       -0.3049139597       -0.5462044507
 S         -4.6405546205        0.3120791602       -0.5180275006
 O         -5.0281899604        0.6427277409       -1.8652697805
 O         -4.7349038506        1.3842023497        0.4493451100
 C         -5.5586061905       -1.1084200301        0.0425136086
 C         -5.9256232904       -2.0683264496       -0.8811618720
 C         -6.6277941404       -3.1811632798       -0.4467316126
 C         -6.9491262206       -3.3150335505        0.8959219773
 C         -6.5741693607       -2.3429870110        1.8110404078
 C         -5.8708722807       -1.2278725908        1.3832959685
 H         -5.5699592408       -0.4423823811        2.0580820589
 H         -6.8280287008       -2.4482211216        2.8536061777
 H         -7.4980007306       -4.1808480707        1.2312167268
 H         -6.9236867503       -3.9379869295       -1.1551420430
 H         -5.6635788803       -1.9171761390       -1.9151807219
 H         -2.9003614706       -0.8359847101        0.2997961790
 H         -2.9093418803        1.3902176914       -2.5582823098
 H         -1.0803566303        3.0095391816       -2.9552538488
 H          0.8071815695        3.1618650208       -1.3808013585
 C          1.1866529193        1.7228548596        0.9199895607
 H          0.8939774892        1.1319299092        1.7985567304
 C          1.4530738192        3.1450994794        1.3702152815
 C          0.4717927791        3.8070479189        2.2890184118
 C          1.8219014291        3.4032343287        2.7990142317
 H          2.5458824090        4.1753163486        3.0118418122
 H          1.8836315390        2.5525898483        3.4620956713
 H          0.2654535991        4.8572876090        2.1516480723
 H         -0.3853492509        3.2303147887        2.6034017514
 H          1.9315722093        3.7574234998        0.6177186619
 O          1.9262480193       -0.8775193607        1.6633497095
