  62
        -98.94781745
 C          1.0411970912        0.9349298797        0.7285656287
 C          1.7041075908        0.8334435195       -0.5179542215
 C          2.3636984607       -0.4501122205       -0.7853506815
 C          2.2500187109       -1.4582526104        0.0970123987
 C          2.8266745109       -2.8399680404       -0.0565272613
 C          4.2988202710       -2.9562292804        0.3626150884
 C          5.3027804307       -2.3111984805       -0.5934793520
 H          6.2950462408       -2.6559197105       -0.2957782822
 H          5.1221433705       -2.6734783507       -1.6060515319
 C          5.2901258908       -0.7762991205       -0.5842681622
 H          4.7794495210       -0.4214615604        0.3137135579
 H          6.3158537108       -0.4037360905       -0.5391491326
 C          4.6309785604       -0.1415323407       -1.8088856521
 H          5.2096009002       -0.3816498808       -2.7036564423
 H          4.6419876105        0.9438757793       -1.6816093523
 C          3.1770699104       -0.5755174207       -2.0373496617
 H          2.7304378102        0.0835739792       -2.7863766416
 H          3.1410115303       -1.5982420707       -2.4134867615
 H          4.4129156113       -2.5210707602        1.3580056083
 H          4.5322613310       -4.0209615604        0.4355300884
 H          2.2345840711       -3.4982505103        0.5834925690
 H          2.7102281906       -3.1690810805       -1.0900226412
 O          1.5528343413       -1.3399594902        1.2588826689
 C          0.9407830914       -0.1439865301        1.6048740289
 O          0.3415259517       -0.1723681000        2.6989850591
 H         -1.4351284490        0.4087432697        0.2542866995
 C         -1.5932069291        1.3486286196       -0.2543794206
 C         -0.7872849290        2.4342106697        0.0658747290
 C         -1.0125444392        3.6419474296       -0.5798606211
 C         -1.9974679794        3.7400740094       -1.5483923409
 C         -2.7603864596        2.6424450394       -1.9017974605
 C         -2.5525482694        1.4324997395       -1.2480240204
 N         -3.3099933195        0.2943482495       -1.5610531100
 S         -2.6173186495       -1.2253680405       -1.4519707600
 O         -1.2167148596       -1.2178020306       -1.8059965604
 O         -3.4708060697       -2.0600330806       -2.2736127796
 C         -2.8363201490       -1.6892260003        0.2517207101
 C         -4.0614330688       -1.4646887602        0.8481808405
 C         -4.2392002785       -1.8411833500        2.1694544006
 C         -3.1970337383       -2.4337884899        2.8667376804
 C         -1.9759080785       -2.6595365600        2.2513661600
 C         -1.7933484188       -2.2867755802        0.9295792299
 H         -0.8527654590       -2.4289764903        0.4193189797
 H         -1.1589103783       -3.1065382500        2.7945069399
 H         -3.3335039380       -2.7198021798        3.8977317604
 H         -5.1868575783       -1.6679857599        2.6536119108
 H         -4.8453865990       -0.9987108903        0.2749449606
 H         -3.9118091297        0.3840494494       -2.3666295398
 H         -3.5063940398        2.7151768393       -2.6783643403
 H         -2.1593896896        4.6819139794       -2.0504909109
 H         -0.4086109991        4.5010857396       -0.3384161414
 C          0.2985121413        2.2096822198        1.0910432687
 H         -0.1799400685        2.0188298499        2.0628440089
 C          1.2557115813        3.3732190298        1.2334631883
 C          0.9146391316        4.5228443999        2.1321191282
 C          1.9872818317        3.5545648300        2.5282917181
 H          3.0161256417        3.8804246000        2.4978548877
 H          1.7759383419        2.8499814301        3.3196504782
 H          1.2097296615        5.5170587799        1.8323346880
 H         -0.0249102683        4.4811425600        2.6618632985
 H          1.7988108311        3.5792011997        0.3184420381
 O          1.7479891406        1.7649259094       -1.3638435116
