  62
        -98.93444909
 C         -2.4682802743       -1.2824949576        0.0950527099
 C         -3.3811384650       -0.7551545853        1.0438382222
 C         -4.4104945395        0.1711316312        0.5428658295
 C         -4.4378772801        0.4615045010       -0.7689676176
 C         -5.3599541308        1.4112355667       -1.4824703424
 C         -4.7299981758        2.8110656885       -1.5817694718
 C         -4.9962453418        3.7239804234       -0.3855406735
 H         -4.3968452109        4.6263826554       -0.5262509160
 H         -6.0461790308        4.0240509806       -0.3907407238
 C         -4.6657696339        3.1227205356        0.9829993580
 H         -3.7135758710        2.5913113004        0.9316127702
 H         -4.5380022964        3.9461793078        1.6882404549
 C         -5.7602765475        2.1826684232        1.5096001956
 H         -6.0338810112        2.4786811969        2.5244253959
 H         -6.6564787244        2.3017570395        0.9011029246
 C         -5.3718118271        0.6987856077        1.5728957232
 H         -6.2818970211        0.0902093531        1.5425272842
 H         -4.8898102893        0.4891939208        2.5328954023
 H         -3.6525070982        2.6848264181       -1.7164928799
 H         -5.1145665484        3.3052330212       -2.4763217792
 H         -6.3285349077        1.4493243284       -0.9930239544
 H         -5.4911155498        1.0164337039       -2.4921901694
 O         -3.5442610603       -0.0652244459       -1.6492703254
 C         -2.5413851779       -0.9380917634       -1.2546049981
 O         -1.8109175812       -1.3106586486       -2.1931692158
 O         -3.3378767311       -1.0522071516        2.2678447317
 C         -1.4263697530       -2.2531814301        0.6226056495
 C         -0.1153518578       -1.5694155999        0.9146490996
 C          0.5263728540       -1.7451918335        2.1347955167
 C          1.7457334580       -1.1389405522        2.3831691955
 C          2.3489361293       -0.3477951438        1.4220632270
 C          1.7152700035       -0.1644938217        0.1998832203
 C          0.4921050240       -0.7709411230       -0.0448988529
 H          0.0102262021       -0.6355430554       -1.0025076555
 N          2.3236224715        0.6390667273       -0.7853976387
 S          3.8543022100        0.1569079958       -1.2941699292
 O          4.0087383396        0.7043227193       -2.6239497892
 O          4.0243069671       -1.2719108271       -1.1614910052
 C          4.9567945489        1.0080566921       -0.1851122347
 C          5.8529754777        0.2899683624        0.5821907327
 C          6.7050646717        0.9758467685        1.4339930003
 C          6.6462987143        2.3594328922        1.5020729352
 C          5.7423068027        3.0658707952        0.7223272700
 C          4.8885287760        2.3866352337       -0.1320179711
 H          4.1741765506        2.8959098457       -0.7573797764
 H          5.6997109992        4.1417050882        0.7781662111
 H          7.3090173805        2.8908427156        2.1666897719
 H          7.4088185670        0.4287714051        2.0404975087
 H          5.8577527515       -0.7851020310        0.4994561949
 H          1.7304954544        0.7835921244       -1.5911258258
 H          3.2985822102        0.1263252274        1.6088013744
 H          2.2321867381       -1.2836812435        3.3355292557
 H          0.0584054104       -2.3556749056        2.8931393115
 H         -1.8367568206       -2.6011438430        1.5836497079
 C         -1.2589000512       -3.4798282565       -0.2660324304
 C         -0.0296034758       -3.7723264162       -1.0684414663
 C         -0.3385568620       -4.5897874331        0.1478482421
 H         -0.6655766685       -5.6103274026        0.0193444659
 H          0.2737969851       -4.4263765559        1.0218208481
 H         -0.1651323149       -4.2145518381       -2.0440078443
 H          0.7985326533       -3.0813358960       -1.0239751143
 H         -2.2000206124       -3.7760764479       -0.7192568648
