  62
        -98.93833446
 C         -2.2405228182       -0.9741068770        0.4093302568
 C         -2.4898619761       -0.1290984005       -0.6966562372
 C         -3.3740762146        1.0262669634       -0.4533566202
 C         -3.8728927385        1.2312884084        0.7799658659
 C         -4.7583157477        2.3318569618        1.3270325455
 C         -5.5181514988        3.2641095545        0.3867577856
 C         -6.6217930442        2.5910179088       -0.4282735579
 H         -7.0279731894        3.3275108411       -1.1250375946
 H         -7.4257999148        2.2973372780        0.2513340324
 C         -6.2009032207        1.3481369164       -1.2086142316
 H         -7.0795547387        0.9760246295       -1.7424625205
 H         -5.8928176046        0.5647034387       -0.5130776386
 C         -5.0909495909        1.5650245308       -2.2354105569
 H         -5.3694217613        2.3749922992       -2.9122186843
 H         -5.0067322059        0.6490834821       -2.8261941794
 C         -3.6990948442        1.8683341084       -1.6532789470
 H         -3.5874792270        2.9251508856       -1.4227796675
 H         -2.9526834847        1.6173067037       -2.4125959848
 H         -4.8259725117        3.7857852676       -0.2675187073
 H         -5.9901053367        4.0226346631        1.0173362233
 H         -5.4723521139        1.8344634105        1.9912447198
 H         -4.1133347639        2.9405109754        1.9708304628
 O         -3.5682363597        0.4069074259        1.8269612040
 C         -2.7615703193       -0.7063743925        1.6723922154
 O         -2.5801474612       -1.3608694012        2.7205064812
 H          0.1030727431       -0.1836350483        1.1762061742
 C          0.6383170833       -0.7244489502        0.4040011092
 C          0.0215476484       -1.8068509908       -0.2115895926
 C          0.7273734219       -2.5020074177       -1.1846400043
 C          2.0057616746       -2.1072981443       -1.5402838830
 C          2.6074530160       -1.0186425212       -0.9371918350
 C          1.9156046683       -0.3229423171        0.0458846704
 N          2.5184505185        0.7907542310        0.6610245272
 S          4.0214323454        0.5581813268        1.3770926113
 O          4.1806862606       -0.8015711796        1.8392987270
 O          4.1275048652        1.5946829128        2.3810657814
 C          5.1781981570        0.8972765687        0.0670980018
 C          5.1030065912        2.1219962083       -0.5669915089
 C          6.0015257267        2.4048135826       -1.5832458000
 C          6.9561732855        1.4652115929       -1.9436399570
 C          7.0204987572        0.2415766995       -1.2948510644
 C          6.1237963333       -0.0483647124       -0.2780776358
 H          6.1309684923       -0.9881213476        0.2505514536
 H          7.7631033982       -0.4874576786       -1.5767987060
 H          7.6538875312        1.6883580693       -2.7352757927
 H          5.9540030906        3.3548731610       -2.0906789798
 H          4.3481828184        2.8243243454       -0.2547044696
 H          1.9039877347        1.2791899438        1.2965582156
 H          3.5994877917       -0.7038013960       -1.2169257490
 H          2.5396801094       -2.6541071739       -2.3022841282
 H          0.2755746013       -3.3530166709       -1.6670756360
 C         -1.3631340870       -2.2006438039        0.2450711924
 H         -1.2705417179       -2.6434924670        1.2485379407
 C         -2.0383551244       -3.2026829494       -0.6689321543
 C         -1.8186111516       -4.6722822246       -0.4773095410
 C         -3.1358508596       -4.0577917808       -0.1132211206
 H         -3.9940416982       -4.2653775007       -0.7345377990
 H         -3.3746690111       -3.9374402256        0.9339585884
 H         -1.1656660018       -4.9804717292        0.3254208946
 H         -1.7757352038       -5.3060011343       -1.3502726773
 H         -2.1588360001       -2.8272766044       -1.6784718005
 O         -1.9943764243       -0.3212338126       -1.8367250893
