  62
        -98.93582949
 C          2.5803103500        1.2624753615        0.0771210285
 C          2.5503787601        0.1007226706       -0.7337733703
 C          3.8593854802       -0.5018936894       -1.0367105800
 C          4.9795096002        0.0611364614       -0.5508402009
 C          6.3670445602       -0.4771757485       -0.7433182507
 C          6.7574630607       -1.4269962873        0.3976641902
 C          5.7037250710       -2.4918391873        0.7024719915
 H          6.1000545414       -3.1219957164        1.5017087820
 H          4.8065309110       -2.0056730771        1.0930511712
 C          5.3213268509       -3.3687578985       -0.4980378376
 H          6.0879631507       -3.2941050791       -1.2701791178
 H          5.2885392212       -4.4109201182       -0.1734016765
 C          3.9550190007       -3.0495637294       -1.1079810776
 H          3.1963961509       -3.0304505188       -0.3210163374
 H          3.6925067907       -3.8588557502       -1.7945877367
 C          3.8652394202       -1.7357847302       -1.8945910888
 H          4.6708889400       -1.6909931908       -2.6302654191
 H          2.9100883401       -1.7345855509       -2.4278909686
 H          6.9173078008       -0.8350796064        1.3019172295
 H          7.7008010708       -1.9102506174        0.1369534004
 H          7.0629149000        0.3634147316       -0.7581105217
 H          6.4202002001       -0.9973577795       -1.6976813102
 O          4.9686645401        1.1748252021        0.2258259180
 C          3.7760815001        1.7844324122        0.5777088677
 O          3.9094117500        2.7691081530        1.3318397667
 O          1.4988577801       -0.4149398400       -1.1915618896
 C          1.3064420400        1.9698554716        0.5086978481
 C          0.2920589303        0.9557027318        0.9777470694
 C          0.5824393708        0.2040272830        2.1129893701
 C         -0.3099417589       -0.7392089467        2.5844805912
 C         -1.5122471590       -0.9556655376        1.9344185417
 C         -1.8116762595       -0.2125905088        0.8012202511
 C         -0.9165645398        0.7430098409        0.3353165499
 H         -1.1531543101        1.2988883400       -0.5588553206
 N         -3.0222252396       -0.4425281997        0.1162940216
 S         -4.4377807493       -0.4308268491        1.0375291719
 O         -4.5073460094        0.7805240216        1.8267802307
 O         -4.5205844189       -1.6660024984        1.7749926431
 C         -5.6747317197       -0.4084010807       -0.2449312178
 C         -5.9822687496       -1.5931590714       -0.8864018366
 C         -6.9248348198       -1.5790812926       -1.9019814564
 C         -7.5402183602       -0.3877994631       -2.2573845274
 C         -7.2222781703        0.7927614677       -1.6031616386
 C         -6.2790781100        0.7860437289       -0.5874421388
 H         -6.0068054401        1.6780656595       -0.0462659398
 H         -7.7046034605        1.7165085073       -1.8796904394
 H         -8.2744794104       -0.3799233540       -3.0474369572
 H         -7.1765808197       -2.4950505131       -2.4117891554
 H         -5.4853711893       -2.4956026509       -0.5710286058
 H         -3.1212403999        0.1766146095       -0.6775562390
 H         -2.2194674088       -1.6855612974        2.2934067726
 H         -0.0686537586       -1.3149859558        3.4658655317
 H          1.5251144709        0.3670984037        2.6192026997
 H          1.6012430701        2.5727248125        1.3837824675
 C          0.7532803695        2.9475064405       -0.5173659727
 C          1.6718083792        3.6990772698       -1.4328720736
 C          0.7462935492        2.6603974290       -1.9876984924
 H         -0.1015334110        2.9923570483       -2.5695268025
 H          1.1610646794        1.7209603788       -2.3164368416
 H          1.4600997789        4.7390968295       -1.6307763846
 H          2.7264250492        3.4714245000       -1.3780629637
 H         -0.0924764405        3.5042565007       -0.1240087130
