  62
        -98.93082721
 C         -2.3999146600       -1.1811960395        0.3499409504
 C         -2.8969628598        0.0212269508        0.9090604099
 C         -4.1312314097        0.5786081208        0.3279690596
 C         -4.6949811396       -0.0488142794       -0.7196448803
 C         -5.9505634395        0.3058107705       -1.4759457406
 C         -6.1642107591        1.7894242704       -1.8122468212
 C         -7.2855120991        2.4429814110       -1.0022483116
 H         -7.6667531989        3.3000346508       -1.5618995719
 H         -8.1050276193        1.7280474012       -0.9034187914
 C         -6.8811141692        2.9409088914        0.3841560183
 H         -6.2460136690        3.8234371312        0.2805972480
 H         -7.7910380392        3.2544730618        0.9013240881
 C         -6.1487904395        1.9195148316        1.2564906788
 H         -6.6007110397        0.9338198916        1.1502936791
 H         -6.2760180296        2.2178492120        2.2993466087
 C         -4.6407654795        1.8378158612        0.9741182490
 H         -4.3249993692        2.6966130409        0.3745737187
 H         -4.0854837496        1.9095981814        1.9146640191
 H         -6.4316502190        1.8546554801       -2.8682167912
 H         -5.2322972691        2.3374724603       -1.6820270413
 H         -6.8086531796       -0.0739005491       -0.9152919506
 H         -5.8987207595       -0.2790047698       -2.3971712004
 O         -4.1674421098       -1.1888450697       -1.2460480098
 C         -3.0233850500       -1.7894756198       -0.7395705094
 O         -2.6943311001       -2.8244781401       -1.3449555990
 O         -2.3347979199        0.6025556111        1.8783560598
 C         -1.1561110002       -1.7670028595        0.9932958208
 C          0.0922916600       -1.2621248500        0.3163056608
 C          0.2687914601       -1.3802237406       -1.0591253091
 C          1.4263645803       -0.9164830410       -1.6564975392
 C          2.4263837203       -0.3257704709       -0.9027045193
 C          2.2499889702       -0.1804639104        0.4663053607
 C          1.0880664200       -0.6539920699        1.0653471907
 H          0.9493818399       -0.5307151295        2.1309398106
 N          3.2562636202        0.4057260497        1.2455012406
 S          4.1324417405        1.7115957293        0.6678328602
 O          4.6455717405        2.3638970497        1.8522311100
 O          3.3497084708        2.5290438392       -0.2292021402
 C          5.4841389205        0.9525283287       -0.2094133493
 C          6.2376099702        0.0019447588        0.4512312611
 C          7.2963338902       -0.5942682216       -0.2146243085
 C          7.5848995404       -0.2298344422       -1.5213803486
 C          6.8223744307        0.7296780277       -2.1692751691
 C          5.7609632007        1.3290823382       -1.5089054594
 H          5.1383812409        2.0761514981       -1.9755979098
 H          7.0486686809        1.0126111773       -3.1847936492
 H          8.4089996704       -0.6962035125       -2.0377960383
 H          7.8917680300       -1.3407157416        0.2859754918
 H          5.9840656500       -0.2516765207        1.4669155012
 H          3.0169270801        0.5189363501        2.2194238605
 H          3.3265873205        0.0389529687       -1.3689572093
 H          1.5543838504       -1.0183808914       -2.7236067191
 H         -0.5095918599       -1.8397382306       -1.6495593991
 H         -1.1595348003       -1.3597297691        2.0171514107
 C         -1.1964402105       -3.2844425794        1.1133920214
 C         -0.3024429206       -4.2068057899        0.3460063419
 C         -0.0816523508       -4.0050476994        1.8130947118
 H         -0.3278364810       -4.8062292391        2.4931998221
 H          0.7748774993       -3.4184759495        2.1103302017
 H         -0.7262666207       -5.1387082700        0.0047043222
 H          0.4096448896       -3.7774479003       -0.3403394782
 H         -2.2023910306       -3.6447215892        1.3034721914
