  62
        -98.94468334
 C         -2.5425800172       -0.8486569289        0.3017096123
 C         -2.5057900055        0.0365213017       -0.8031688324
 C         -2.7939620808        1.4479069829       -0.5089893371
 C         -3.0916335400        1.8202092641        0.7479114573
 C         -3.3495374257        3.2295683773        1.1929740402
 C         -2.0608201609        3.9078533134        1.6771358716
 C         -0.8818469939        3.7752931148        0.7120291291
 H         -0.0502806775        4.3429041620        1.1363751016
 H         -0.5566801657        2.7327618613        0.6633731979
 C         -1.1620258628        4.2764265286       -0.7113209159
 H         -2.0282764946        4.9399949319       -0.7110210680
 H         -0.3026564478        4.8595162894       -1.0493201991
 C         -1.3702893935        3.1630599782       -1.7399435954
 H         -1.3041051152        3.6039739882       -2.7388864938
 H         -0.5574695929        2.4359507470       -1.6491356011
 C         -2.7097529895        2.4188681456       -1.6524687648
 H         -3.5290633816        3.1397740430       -1.6112307415
 H         -2.8211431394        1.8235563366       -2.5635545856
 H         -2.2733737752        4.9652488131        1.8466808120
 H         -1.7714145646        3.4610691686        2.6309774408
 H         -3.7805204292        3.7924994818        0.3674563266
 H         -4.0652093220        3.2030170376        2.0166676033
 O         -3.1567396143        0.9394336618        1.7778564429
 C         -2.8543617360       -0.3962410861        1.5884585820
 O         -2.9114593775       -1.0830398953        2.6282455239
 O         -2.2491877325       -0.3067507091       -1.9903664052
 C         -2.1644620385       -2.3228005545        0.2157162804
 C         -0.6581627728       -2.4156099937        0.2601866182
 C          0.0048656336       -2.9861529273        1.3404546417
 C          1.3870481194       -2.9581627697        1.4158993162
 C          2.1344162702       -2.3336369600        0.4319508920
 C          1.4779714637       -1.7631429747       -0.6491196589
 C          0.0994274283       -1.8330793535       -0.7459011086
 H         -0.3959861993       -1.3699438588       -1.5862723652
 N          2.2238932107       -1.0203627866       -1.6051699516
 S          2.4539706178        0.5630759066       -1.0551219403
 O          1.3318489687        1.0189198520       -0.2653962489
 O          2.7793114649        1.3489008723       -2.2255558804
 C          3.8950759339        0.3949289430       -0.0258819575
 C          5.1121344187        0.1642809992       -0.6371764330
 C          6.2363843970       -0.0067885068        0.1544327052
 C          6.1238695809        0.0527754249        1.5357742995
 C          4.8948953721        0.2866596544        2.1337828227
 C          3.7663457548        0.4589455217        1.3472144202
 H          2.7889782602        0.6379564300        1.7669578010
 H          4.8086873665        0.3322877057        3.2075617263
 H          6.9992923955       -0.0833819566        2.1509201197
 H          7.1941206769       -0.1876606039       -0.3062757150
 H          5.1511925347        0.1307267941       -1.7131711920
 H          1.7452758516       -0.9669130220       -2.4956474820
 H          3.2090302656       -2.2779023588        0.4970601172
 H          1.8861990157       -3.4066729317        2.2611200417
 H         -0.5745055806       -3.4274397469        2.1384992566
 H         -2.5602978300       -2.7880603019        1.1282044925
 C         -2.7476567552       -3.0427311577       -0.9824319964
 C         -2.8597187464       -4.5363024450       -0.9430961061
 C         -4.0933919591       -3.6893191608       -0.8624568260
 H         -4.7568053305       -3.6562354568       -1.7135067184
 H         -4.6002163435       -3.6141047140        0.0887234952
 H         -2.6744443135       -5.0898293994       -1.8506976182
 H         -2.5319178094       -5.0386731136       -0.0456418668
 H         -2.5046056285       -2.5787028178       -1.9287905279
