  62
        -98.94499303
 C          1.8957987616        0.7129983858       -0.1891537089
 C          2.4695567448        0.1246979736        0.9628115748
 C          3.5410278521       -0.8472094515        0.7191773109
 C          3.8813373879       -1.1615662921       -0.5442072779
 C          4.9356523392       -2.1533262735       -0.9552847598
 C          6.3590920562       -1.5793247598       -0.9737671294
 C          6.9766770019       -1.3254164178        0.4020242130
 H          6.8947358943       -2.2283910823        1.0079518892
 H          8.0401077628       -1.1344343756        0.2449384064
 C          6.3687334014       -0.1368501273        1.1597693074
 H          5.8145111953        0.4948896780        0.4618298073
 H          7.1699401784        0.4759356056        1.5788753126
 C          5.4456813731       -0.5263186587        2.3143733373
 H          5.0442215726        0.3894270106        2.7557231467
 H          6.0202170877       -1.0468859834        3.0837736717
 C          4.2625614590       -1.4133169157        1.9049513684
 H          4.6064231957       -2.4259243136        1.6945546170
 H          3.5563407695       -1.4496221547        2.7382555208
 H          6.9911071102       -2.2942623792       -1.5056375027
 H          6.3532232201       -0.6500373826       -1.5480518681
 H          4.9005392818       -3.0214461134       -0.2962388804
 H          4.6808017884       -2.4752329778       -1.9673992232
 O          3.2694560630       -0.6116116865       -1.6264567278
 C          2.2765891294        0.3480049515       -1.4807815642
 O          1.8211664176        0.7807712163       -2.5554447900
 O          2.0964744146        0.3915706643        2.1374652408
 C          0.8022595197        1.7515150957       -0.0153748023
 C         -0.4822111062        1.2574886620       -0.6341631609
 C         -1.2584996413        2.0130471192       -1.5020898666
 C         -2.4203553681        1.4871060047       -2.0419691023
 C         -2.8386449812        0.2094968353       -1.7214025215
 C         -2.0814621426       -0.5463670165       -0.8341077590
 C         -0.9197569018       -0.0175320455       -0.2942082730
 H         -0.3289892663       -0.6097212453        0.3938121977
 N         -2.5067725852       -1.8380906348       -0.4838778316
 S         -4.1307546243       -2.0775598147       -0.1626018782
 O         -4.1732759041       -3.1951573994        0.7544568497
 O         -4.8502394566       -2.2539720514       -1.3996464985
 C         -4.6804679018       -0.5838325071        0.6445472493
 C         -4.0462424523       -0.2003557496        1.8096963198
 C         -4.4426235545        0.9710446406        2.4339381257
 C         -5.4620051090        1.7348350478        1.8859326703
 C         -6.0930223117        1.3330978019        0.7191141338
 C         -5.6989181871        0.1634746130        0.0890542276
 H         -6.1590883889       -0.1842991998       -0.8214653813
 H         -6.8866550053        1.9276751174        0.2963192447
 H         -5.7653923890        2.6479132501        2.3732477420
 H         -3.9521831317        1.2844592743        3.3416336345
 H         -3.2592478694       -0.8170153036        2.2140096367
 H         -1.9205854688       -2.2967517767        0.1972451479
 H         -3.7287276927       -0.2203769887       -2.1512572727
 H         -3.0063535491        2.0803397287       -2.7269784713
 H         -0.9487075626        3.0100000726       -1.7676696034
 H          0.6474387476        1.8293806828        1.0712244183
 C          1.2569963321        3.0969762162       -0.5392731604
 C          0.7029879975        4.3604418030        0.0461100677
 C          2.1173283929        3.9584781079        0.3343297979
 H          2.9192449281        4.5184828301       -0.1229689722
 H          2.3543464200        3.5852641114        1.3201245151
 H          0.5346995445        5.2018478867       -0.6088249251
 H         -0.0212394604        4.2670594519        0.8408845142
 H          1.4840052439        3.0764603207       -1.5991624887
