  62
        -98.94026592
 C         -1.8129344696       -0.8223466321       -0.8318208705
 C         -2.0546538974       -0.3356642265        0.4767601451
 C         -3.4704907220       -0.2249486323        0.8654644889
 C         -4.4281020672       -0.6212631947        0.0086490564
 C         -5.9040525549       -0.5156834850        0.2585836956
 C         -6.4618613429        0.8176371516       -0.2586607462
 C         -5.6607778999        2.0388985944        0.1927234890
 H         -4.6688174630        2.0034089083       -0.2634005408
 H         -6.1649291880        2.9227795034       -0.2039692201
 C         -5.5128295170        2.1742451726        1.7146268352
 H         -5.7030544791        3.2127788873        1.9935987652
 H         -6.2636090699        1.5621513464        2.2157274933
 C         -4.1257252305        1.8156503869        2.2512412535
 H         -3.3637386412        2.3597049900        1.6875923006
 H         -4.0663562006        2.1514831306        3.2898872166
 C         -3.7671209063        0.3242718911        2.2326300516
 H         -2.8477436505        0.1950939455        2.8114230973
 H         -4.5601467657       -0.2507561169        2.7151386187
 H         -6.4621878272        0.7923801916       -1.3509355360
 H         -7.4956411839        0.9127217018        0.0785524647
 H         -6.4005481734       -1.3345951278       -0.2648940387
 H         -6.0943580091       -0.6117554629        1.3258145801
 O         -4.1550157962       -1.1334284526       -1.2190066706
 C         -2.8494662799       -1.2461620247       -1.6673744698
 O         -2.7414158989       -1.7423295207       -2.8067930740
 O         -1.1494835143       -0.0087082229        1.2859791630
 C         -0.4024405337       -0.9868650653       -1.3706604657
 C          0.4805143465       -1.6361932854       -0.3331941895
 C          0.0836233610       -2.8547844082        0.2133919374
 C          0.8563053539       -3.4879810462        1.1658734605
 C          2.0584271703       -2.9354659648        1.5738948416
 C          2.4696481363       -1.7281615193        1.0264173208
 C          1.6786539387       -1.0823405339        0.0860434650
 H          2.0067851239       -0.1336452741       -0.3028051345
 N          3.6809090326       -1.1327395136        1.4126484696
 S          4.6729253681       -0.4848434158        0.2305906161
 O          4.5566727158       -1.2086488354       -1.0145286755
 O          5.9909815022       -0.4617803353        0.8294682648
 C          4.1130690712        1.1915951282        0.0197122384
 C          3.8601453700        1.9555365761        1.1416203835
 C          3.4639780583        3.2731130892        0.9774314512
 C          3.3353614999        3.8040814874       -0.2971506967
 C          3.5964331186        3.0245254821       -1.4138237702
 C          3.9899216552        1.7048098438       -1.2562864153
 H          4.1935778159        1.0599167797       -2.0964923909
 H          3.4932094397        3.4376444612       -2.4048058655
 H          3.0262091943        4.8299693276       -0.4220070562
 H          3.2556821692        3.8816850484        1.8425972572
 H          3.9700451542        1.5102194585        2.1161519631
 H          4.2100215228       -1.6535582695        2.0969328880
 H          2.6685879018       -3.4327215697        2.3128940506
 H          0.5274797640       -4.4256975453        1.5886228288
 H         -0.8509114856       -3.2925512982       -0.1123612651
 H         -0.5004772742       -1.6967056442       -2.2096070415
 C          0.1932901861        0.2882974482       -1.9496823881
 C         -0.6832527981        1.3723228349       -2.5002610407
 C          0.0944535111        1.6050259712       -1.2416515933
 H          0.9446381133        2.2704223425       -1.2777363663
 H         -0.4343217852        1.6232349256       -0.3023567940
 H         -0.3687699063        1.8743511520       -3.4027795073
 H         -1.7527308478        1.2359288148       -2.4278263995
 H          1.1133182553        0.0932135416       -2.4934550339
