  62
        -98.94410081
 C         -1.4612550658       -1.3003291853        0.7094253396
 C         -2.4850571424       -1.1895931015       -0.2627787751
 C         -3.3644109357       -0.0188017441       -0.1274715604
 C         -3.1273212030        0.8978417165        0.8274639252
 C         -3.9458855398        2.1322479024        1.0957431042
 C         -3.6215451416        3.3252850201        0.1856523738
 C         -4.1006074197        3.1959754265       -1.2610186750
 H         -5.1591130114        2.9341889288       -1.2711906785
 H         -4.0057035535        4.1828707866       -1.7184044298
 C         -3.3112045369        2.1853212575       -2.1045488862
 H         -2.3644660648        1.9563161233       -1.6106100559
 H         -3.0662736617        2.6289879911       -3.0722404556
 C         -4.0456424273        0.8735093558       -2.3767345196
 H         -4.9276355403        1.0666034081       -2.9915746781
 H         -3.3787211834        0.2171840825       -2.9414726568
 C         -4.4865555125        0.1273917018       -1.1115600305
 H         -5.3302169742        0.6395830852       -0.6489995266
 H         -4.8043224127       -0.8770161479       -1.4023222118
 H         -2.5430870936        3.4964176636        0.1952476406
 H         -4.0996364037        4.2046881045        0.6233850895
 H         -5.0060392641        1.8906031202        1.0106482228
 H         -3.7402943914        2.4213673009        2.1286440935
 O         -2.0944841537        0.7857995947        1.7043405175
 C         -1.2440055896       -0.3037751386        1.6666618375
 O         -0.3442833150       -0.2814743223        2.5298634510
 H          1.9346772294       -1.4622856299        1.3413542047
 C          1.8270844283       -1.6165237522        0.2757375036
 C          0.6427874817       -2.1493559574       -0.2152637369
 C          0.5009663319       -2.3041398774       -1.5899229959
 C          1.5260361773       -1.9398694097       -2.4452193662
 C          2.7081357063       -1.4137370978       -1.9521783069
 C          2.8527574437       -1.2461667399       -0.5820402308
 N          4.0451779258       -0.6755813854       -0.0763715656
 S          4.2297724609        0.9607750895       -0.3871657296
 O          4.2910587084        1.1541569025       -1.8128472627
 O          5.3881335720        1.3768666797        0.3692083947
 C          2.7584146732        1.7194963056        0.2752417175
 C          2.7861745329        2.2330140210        1.5561956827
 C          1.6227800254        2.7568511163        2.0948129019
 C          0.4535397547        2.7472013836        1.3512470974
 C          0.4422383027        2.2217120416        0.0694450791
 C          1.6020862003        1.6998983516       -0.4780827760
 H          1.6244234250        1.2839341968       -1.4726977639
 H         -0.4712088305        2.2024724708       -0.5052715703
 H         -0.4571006193        3.1367233350        1.7788041655
 H          1.6253210976        3.1597828209        3.0947779521
 H          3.7164865178        2.2200254263        2.1016039584
 H          4.1590760667       -0.8262164746        0.9171025267
 H          3.5075064313       -1.1059868820       -2.6064276924
 H          1.4027528388       -2.0637876413       -3.5106010126
 H         -0.4289648021       -2.6834666442       -1.9836505096
 C         -0.4755366067       -2.4595942588        0.7487676791
 H         -0.0505890308       -2.4530931155        1.7615465056
 C         -1.1067143354       -3.8141995780        0.5072312884
 C         -0.3442304838       -5.0422916970        0.9011322680
 C         -1.5554390418       -4.6294183230        1.6810311055
 H         -2.4567739086       -5.2160336831        1.5856528741
 H         -1.4095006321       -4.2129940522        2.6673860795
 H          0.6242904485       -4.9046132099        1.3583128749
 H         -0.4111151810       -5.9149814212        0.2699462296
 H         -1.7139515022       -3.8625698576       -0.3858800022
 O         -2.6842792519       -2.0124177290       -1.1936622609
