  62
        -98.94123678
 C         -1.8299346303       -1.2689521490       -0.1008163405
 C         -0.9107992502       -1.7124691400       -1.0831053599
 C          0.1995570690       -2.5772459006       -0.6420927890
 C          0.2747448482       -2.9098005101        0.6597382611
 C          1.3489525073       -3.6981259906        1.3602626120
 C          2.6209363978       -2.8657248014        1.5852930022
 C          3.0964114489       -2.0757049322        0.3687079321
 H          2.3131152295       -1.3732626318        0.0785275214
 H          3.9549843292       -1.4750211027        0.6825646422
 C          3.5191819989       -2.9102736731       -0.8383625174
 H          4.3232953283       -3.5862391235       -0.5396259367
 H          3.9245169597       -2.2168273737       -1.5793472575
 C          2.4159710886       -3.7318415826       -1.5103556975
 H          2.2074078377       -4.6415496122       -0.9537276672
 H          2.7954714388       -4.0462407632       -2.4868520072
 C          1.1231145593       -2.9666412218       -1.7714495184
 H          1.3614356502       -2.0390362922       -2.3022911987
 H          0.5066278092       -3.5495440316       -2.4665085585
 H          3.4145048472       -3.5326886918        1.9279113628
 H          2.4142139780       -2.1424472209        2.3793449618
 H          1.5722733969       -4.6091399310        0.8129953325
 H          0.9449849867       -3.9825232599        2.3346327919
 O         -0.6577060119       -2.5026724191        1.5642325205
 C         -1.6983155012       -1.6509741285        1.2354375497
 O         -2.4145338314       -1.3409262776        2.2078814893
 O         -1.0002936894       -1.3793761705       -2.2972995501
 C         -2.8795197894       -0.2751331284       -0.5636302614
 C         -2.3481219984        1.1398799412       -0.4698788318
 C         -2.7323019173        2.1121479711       -1.3873759824
 C         -2.2067760264        3.3897052408       -1.3207202027
 C         -1.2567116967        3.7133642405       -0.3673205824
 C         -0.8647425878        2.7493642406        0.5528571782
 C         -1.4400052786        1.4871527810        0.5177779185
 H         -1.1395235895        0.7625077511        1.2580603589
 N          0.1304178720        3.0112792603        1.5138903686
 S          1.4374948412        1.9633045794        1.6003652496
 O          1.0185339301        0.6660630699        2.0611807000
 O          2.4012571413        2.6570993691        2.4272990198
 C          2.0455909719        1.8680427883       -0.0734061601
 C          1.4276557517        1.0169407884       -0.9673369400
 C          1.8545541323        1.0019707175       -2.2856520398
 C          2.8959316031        1.8252933366       -2.6843562797
 C          3.5132135233        2.6690769066       -1.7728195497
 C          3.0802207127        2.6992416374       -0.4570986299
 H          3.5293667428        3.3392639874        0.2850449300
 H          4.3251860138        3.3059785658       -2.0847643896
 H          3.2263706335        1.8071156859       -3.7108570895
 H          1.3565412422        0.3482725076       -2.9852830197
 H          0.6240279011        0.3793059891       -0.6332284601
 H          0.4621066127        3.9659867601        1.5126016883
 H         -0.8191525360        4.6994781402       -0.3368630026
 H         -2.5180524956        4.1355147107       -2.0356818531
 H         -3.4370476871        1.8577316113       -2.1639660526
 H         -3.0413348290       -0.4915370588       -1.6295659014
 C         -4.2098864798       -0.3851587472        0.1535979880
 C         -5.4742351992       -0.0220106766       -0.5637900827
 C         -5.1769445704       -1.4564931267       -0.2485802520
 H         -5.7438789711       -1.9510317659        0.5253575480
 H         -4.8884322405       -2.1080752472       -1.0606049916
 H         -6.2531530791        0.4760831142       -0.0074975133
 H         -5.4005426185        0.2896897129       -1.5942418428
 H         -4.1441811201       -0.1513443368        1.2085110180
