  62
        -98.94967186
 C         -1.5023016703       -1.0598529896        0.0403241993
 C         -2.5196624502       -0.6330872296        0.9239918095
 C         -3.0467775198        0.7171791606        0.6920743100
 C         -2.5201310396        1.4687459808       -0.2924476497
 C         -2.9888023093        2.8459181711       -0.6617305192
 C         -4.0794480993        2.7947432918       -1.7410377792
 C         -5.2076447596        1.8107192220       -1.4315011495
 H         -5.9325196696        1.8804946324       -2.2452833495
 H         -4.8063434198        0.7948781019       -1.4428545199
 C         -5.9164341795        2.0590626816       -0.0928108694
 H         -5.7074766492        3.0713981415        0.2548311210
 H         -6.9947891895        1.9849888120       -0.2479685294
 C         -5.5561105297        1.0618512211        1.0098683202
 H         -5.6738638200        0.0422019413        0.6345991498
 H         -6.2649722297        1.1923600710        1.8318505203
 C         -4.1457009097        1.1975145605        1.5980576902
 H         -3.9693101394        2.2316530404        1.9023348706
 H         -4.0945770898        0.5659643102        2.4902149800
 H         -4.4915498291        3.7981928319       -1.8620234788
 H         -3.6169751594        2.5003363120       -2.6858529093
 H         -3.3653408291        3.3451526509        0.2291591510
 H         -2.1326665491        3.4060760410       -1.0421945390
 O         -1.5245893098        1.0354226509       -1.1048766399
 C         -0.9870467101       -0.2313232693       -0.9556176404
 O         -0.0758905702       -0.5033230293       -1.7619448605
 H          0.4386813799       -0.5895774707        1.6066980095
 C          1.1073533597       -1.3088839007        1.1561595592
 C          0.5940112894       -2.3487352902        0.3914524388
 C          1.4830631691       -3.2609081903       -0.1642743315
 C          2.8473580692       -3.1160857407        0.0204403985
 C          3.3547561195       -2.0505308811        0.7410511989
 C          2.4728631797       -1.1389789811        1.3090247992
 N          2.9332473400       -0.0154670515        2.0308882696
 S          2.6291648704        1.4784618089        1.3284207502
 O          3.2682236007        2.4410140884        2.2011974606
 O          1.2143651304        1.6468536093        1.1211063703
 C          3.5141371703        1.4086672392       -0.2192900898
 C          4.7962990105        1.9236974689       -0.2623158897
 C          5.5307166004        1.8029954591       -1.4302575197
 C          4.9766373102        1.1607502897       -2.5277618100
 C          3.6911518901        0.6462287000       -2.4659597001
 C          2.9466124102        0.7667499598       -1.3015793001
 H          1.9417113401        0.3774269600       -1.2379230802
 H          3.2525290700        0.1458372804       -3.3143698803
 H          5.5483478102        1.0610300699       -3.4369370800
 H          6.5296883505        2.2053552189       -1.4802563896
 H          5.1821263706        2.4168048685        0.6154855905
 H          3.9146684700       -0.0665867518        2.2708764596
 H          4.4196255195       -1.9206767514        0.8630302089
 H          3.5246506190       -3.8322029607       -0.4189802818
 H          1.1064556689       -4.0845533100       -0.7486037518
 C         -0.9014074507       -2.4419273498        0.2144014488
 H         -1.3371326407       -2.8367431800        1.1450253087
 C         -1.3128273509       -3.3402176092       -0.9351176715
 C         -1.5250340913       -4.8079500493       -0.7170179621
 C         -2.7000570611       -3.9068587689       -0.9452451917
 H         -3.2260658211       -3.9680049984       -1.8861859317
 H         -3.3358470610       -3.6685338190       -0.1048916416
 H         -1.2470065615       -5.4920232691       -1.5045691223
 H         -1.3712398614       -5.1931280797        0.2796459478
 H         -0.8984567808       -3.0150321990       -1.8831054414
 O         -2.9630015603       -1.3481654599        1.8650538093
