  62
        -98.93309170
 C          1.9275386710        0.9081729008        0.6894572625
 C          2.1643474694        0.2793549824       -0.5546037215
 C          2.7078287154       -1.0948511674       -0.5133977540
 C          2.8778807727       -1.6930593407        0.6792904437
 C          3.4524278397       -3.0551705932        0.9629726594
 C          4.9849535030       -3.0901730110        0.8297802082
 C          5.5471616528       -2.3331079203       -0.3711196384
 H          5.2091298820       -1.2959024200       -0.3309461323
 H          6.6361860030       -2.3227597028       -0.2764357519
 C          5.2029289676       -2.9267057455       -1.7348783137
 H          5.7127143402       -2.3233361432       -2.4901843191
 H          5.6030261163       -3.9413904340       -1.7939510125
 C          3.7152481393       -2.9738238768       -2.0870090881
 H          3.2134779464       -3.7757758943       -1.5523821249
 H          3.6402537516       -3.2154358369       -3.1513387040
 C          2.9677373488       -1.6581521693       -1.8900788178
 H          3.4851092598       -0.8669310849       -2.4445537667
 H          1.9811100049       -1.7431220957       -2.3623471289
 H          5.4098170125       -2.6428083148        1.7316614012
 H          5.3038629943       -4.1328353523        0.7881405540
 H          3.1859899291       -3.2991124903        1.9938434442
 H          2.9861653014       -3.7948506475        0.3187629740
 O          2.5691354406       -1.0718884560        1.8547108120
 C          2.0844526381        0.2197767043        1.8930089457
 O          1.8325163414        0.6409850964        3.0417110061
 H         -0.7369745271        0.7299888571        0.6034263441
 C         -0.8086373231        1.5407172823       -0.1092403249
 C          0.2168097221        2.4764161536       -0.1828246993
 C          0.1106729160        3.5072752074       -1.1062894465
 C         -0.9967954730        3.5919100163       -1.9328236009
 C         -2.0164909875        2.6630970056       -1.8528088817
 C         -1.9138074134        1.6188578314       -0.9383317513
 N         -2.9118430567        0.6326290087       -0.8712868215
 S         -3.1176062430       -0.2650165468        0.5362063600
 O         -3.1955074481        0.6093085542        1.6862185142
 O         -2.1126886149       -1.2991944056        0.5815393278
 C         -4.7160084389       -0.9870323653        0.2136147034
 C         -4.7909347908       -2.1151979336       -0.5812840248
 C         -6.0355982874       -2.6580212356       -0.8585619676
 C         -7.1784051144       -2.0671005624       -0.3401292477
 C         -7.0876356170       -0.9367819433        0.4581372076
 C         -5.8459360279       -0.3882414384        0.7383311992
 H         -5.7248286335        0.4833714184        1.3612200021
 H         -7.9770852446       -0.4817320630        0.8630316458
 H         -8.1454952364       -2.4922543884       -0.5571664485
 H         -6.1094373894       -3.5385903984       -1.4760815543
 H         -3.8747913777       -2.5438872577       -0.9531612461
 H         -3.7901578528        0.9204331837       -1.2793094497
 H         -2.8776370441        2.7306150109       -2.4997647009
 H         -1.0663241270        4.3961623110       -2.6495526113
 H          0.9015861195        4.2336781970       -1.1940549487
 C          1.3702422375        2.3176913060        0.7783713914
 H          0.9546045604        2.3898608121        1.7987825949
 C          2.4186821884        3.4142751456        0.6591177389
 C          3.8557764325        3.1495059965        0.9936172972
 C          3.4533560860        3.4150711982       -0.4242900821
 H          3.7323695382        4.3610332655       -0.8649460368
 H          3.4408218247        2.5925935248       -1.1211959372
 H          4.4051285385        3.9107522924        1.5270747584
 H          4.1263987644        2.1408382952        1.2715080852
 H          2.0290647615        4.3808378549        0.9638725758
 O          1.9524410100        0.8294879634       -1.6668469587
