  62
        -98.94549921
 C         -2.0290800174       -1.5138465655       -0.0423113131
 C         -1.7639678270       -0.3146288618       -0.7472841554
 C         -2.8797746816        0.6406018525       -0.8180697274
 C         -4.0615558193        0.3180009720       -0.2614352861
 C         -5.2636752460        1.2156001464       -0.2200975246
 C         -5.2780015028        2.0630988658        1.0597864019
 C         -3.9538849454        2.7722772579        1.3439501532
 H         -4.0906370091        3.3644231424        2.2514523918
 H         -3.1875347492        2.0245395580        1.5609025029
 C         -3.4664594152        3.6813488719        0.2074324965
 H         -4.2951315513        3.9107312089       -0.4635723215
 H         -3.1272362315        4.6260916773        0.6373497405
 C         -2.2981261349        3.1156431828       -0.6022386353
 H         -1.5000563435        2.8007678673        0.0748443236
 H         -1.9052483746        3.9205243604       -1.2288681970
 C         -2.6312429028        1.9405602792       -1.5298107261
 H         -3.4802880133        2.2008970067       -2.1651958713
 H         -1.7611850116        1.7664641662       -2.1692180545
 H         -6.0781986734        2.8008778335        0.9764860760
 H         -5.5058883735        1.4097375048        1.9053122497
 H         -5.2602637704        1.8610454754       -1.0962080843
 H         -6.1594755057        0.5926053116       -0.2427638594
 O         -4.2851898081       -0.8585357938        0.3791316004
 C         -3.2725889569       -1.7926832586        0.5232017423
 O         -3.5978258270       -2.8132607213        1.1636428651
 H          1.6861300863       -2.4185643959       -0.7662204883
 C          1.5297394528       -1.9101498945        0.1719896975
 C          0.2732329503       -1.8987635018        0.7540006746
 C          0.1078515270       -1.2319815927        1.9656132067
 C          1.1694256418       -0.5881066171        2.5708141888
 C          2.4208427507       -0.5897330336        1.9790252706
 C          2.5962579270       -1.2526147670        0.7727856646
 N          3.8608900456       -1.2487073830        0.1583635300
 S          4.6641964322        0.2162259907        0.0465884003
 O          5.5695623697        0.0615713854       -1.0706054387
 O          5.2795346100        0.5240714696        1.3139870686
 C          3.4075376735        1.4240925705       -0.3299261704
 C          2.7347893639        1.3101016927       -1.5300236491
 C          1.7427965148        2.2269233821       -1.8326584647
 C          1.4413994674        3.2366965030       -0.9326029192
 C          2.1241513856        3.3371727663        0.2692710133
 C          3.1173404041        2.4218157207        0.5776364735
 H          3.6737462487        2.4647717987        1.4998921199
 H          1.8834539433        4.1233035381        0.9670757004
 H          0.6676837322        3.9492687649       -1.1704914114
 H          1.2022220524        2.1429766515       -2.7611829660
 H          2.9956023712        0.5171854381       -2.2123396611
 H          3.8830548300       -1.7352685474       -0.7261105782
 H          3.2604586868       -0.0896371971        2.4334394883
 H          1.0233445186       -0.0757469830        3.5097828796
 H         -0.8729194666       -1.2205914497        2.4224382061
 C         -0.9302447881       -2.5497297156        0.1181741747
 H         -1.3207076907       -3.3068952501        0.8129989233
 C         -0.6427224704       -3.2132265973       -1.2123903384
 C         -0.0573533184       -4.5921144566       -1.2561531237
 C         -1.4892296388       -4.3725415612       -1.6401914596
 H         -1.7635814635       -4.4548535710       -2.6812671033
 H         -2.2613603823       -4.7002908312       -0.9593683532
 H          0.1460231714       -5.0790567637       -0.3143882995
 H          0.6496089391       -4.8306319993       -2.0367419439
 H         -0.3470315659       -2.5047009164       -1.9778314600
 O         -0.6593750055       -0.0553059188       -1.2896255686
