  62
        -98.94452388
 C          1.4581262782        1.5377696911        0.4085358283
 C          1.6944896933        0.3351062842        1.1192284771
 C          2.8465555565       -0.4604494289        0.6753162596
 C          3.5778943909       -0.0313163154       -0.3695042123
 C          4.7461925698       -0.7663383459       -0.9590427150
 C          4.3018464880       -1.7050056549       -2.0894327119
 C          3.1259428077       -2.6073966415       -1.7154287849
 H          2.2376566911       -1.9902991149       -1.5602652021
 H          2.9241110614       -3.2504758741       -2.5745948020
 C          3.3642510616       -3.4736747766       -0.4710799432
 H          3.0198745393       -4.4882258987       -0.6804750564
 H          4.4323932036       -3.5317440292       -0.2588169619
 C          2.6205617675       -2.9998149965        0.7784984236
 H          2.6746191209       -3.7939329678        1.5275107395
 H          1.5669280233       -2.8425026362        0.5370292845
 C          3.1549905900       -1.7206986743        1.4337820336
 H          2.6609900682       -1.6134645519        2.4037458648
 H          4.2297237941       -1.8121627417        1.6045015132
 H          5.1556516830       -2.3186099604       -2.3829849829
 H          4.0087695045       -1.0972831058       -2.9486819643
 H          5.2442837534       -1.3340331966       -0.1754826632
 H          5.4449876054       -0.0316695197       -1.3627534737
 O          3.3038352974        1.1133142501       -1.0445666042
 C          2.2385109266        1.9249547884       -0.6811860085
 O          2.1080130192        2.9383285071       -1.3927746351
 O          0.9807624958       -0.0504041782        2.0835019770
 C          0.2883853322        2.4090209267        0.8350126660
 C         -0.7723853109        2.3612557639       -0.2365285255
 C         -1.0422155370        3.4199711973       -1.0935349225
 C         -2.0054254616        3.2914309941       -2.0788552406
 C         -2.7329003763        2.1231534264       -2.2097999507
 C         -2.4752438328        1.0588755403       -1.3522800020
 C         -1.4899998952        1.1796431450       -0.3860574804
 H         -1.2817742043        0.3474357310        0.2713483013
 N         -3.1988352890       -0.1398387488       -1.4539987384
 S         -3.7633804745       -0.8796571412       -0.0577508630
 O         -4.9617006796       -1.5757098418       -0.4797892662
 O         -3.9263861279        0.0729354852        1.0146912582
 C         -2.5309425340       -2.0944092470        0.3526042248
 C         -2.2761320690       -3.0913806785       -0.5691486668
 C         -1.3662787802       -4.0843573374       -0.2466526957
 C         -0.7328449333       -4.0655366764        0.9873969166
 C         -0.9943378864       -3.0542319965        1.8988402428
 C         -1.9031044315       -2.0576415436        1.5808884664
 H         -2.1277558721       -1.2531146137        2.2632389251
 H         -0.4892139518       -3.0269057117        2.8507989276
 H         -0.0308535822       -4.8441147618        1.2414891150
 H         -1.1540065636       -4.8697992439       -0.9540478772
 H         -2.7999085578       -3.0773437569       -1.5104649420
 H         -3.9066874428       -0.1387060267       -2.1745247918
 H         -3.4949622753        2.0307671556       -2.9691354072
 H         -2.2002613644        4.1175109287       -2.7460693544
 H         -0.4875796465        4.3386250931       -1.0005566945
 H         -0.1229217276        1.9245902973        1.7321749351
 C          0.7321662119        3.8090715855        1.2006957822
 C         -0.1777349244        4.6793945447        2.0134155533
 C          1.0691701927        4.1189644695        2.6270591665
 H          1.8916667799        4.7890123320        2.8277955216
 H          0.9703203057        3.3211706851        3.3486693981
 H         -0.2133365601        5.7359163214        1.7957027143
 H         -1.1259385918        4.2605766388        2.3162249849
 H          1.3379957535        4.2789624942        0.4353909150
