  62
        -98.93824935
 C          2.1950751400        1.1584136602        0.2236074794
 C          2.3147053600        0.0622457405       -0.6613532210
 C          3.1533649899       -1.0631217097       -0.2047298913
 C          3.7171041297       -1.0146887402        1.0139368588
 C          4.6220070895       -2.0312703705        1.6533207786
 C          6.0990632796       -1.6890611306        1.3942992590
 C          6.6709917297       -2.2481179402        0.0922273889
 H          7.6713900498       -1.8271160402       -0.0307798408
 H          6.7797898896       -3.3307936002        0.1837942685
 C          5.8515154099       -1.9440309796       -1.1643643712
 H          5.5151854000       -0.9059212496       -1.1420808808
 H          6.5097764501       -2.0525081194       -2.0284334411
 C          4.6453970399       -2.8791447495       -1.3385997017
 H          4.7366274997       -3.7144502297       -0.6446978319
 H          4.6618749600       -3.3087499991       -2.3425034118
 C          3.2723830599       -2.2136902394       -1.1674903816
 H          2.9452789301       -1.8059148390       -2.1293519815
 H          2.5351942598       -2.9755358194       -0.8894950220
 H          6.1962579997       -0.6005041106        1.4025287594
 H          6.6977865994       -2.0769331109        2.2207825289
 H          4.4356276493       -1.9769382009        2.7280038186
 H          4.3818587494       -3.0324407604        1.3079987782
 O          3.5619739397        0.0518487395        1.8451046392
 C          2.8105002998        1.1496374997        1.4797616795
 O          2.7661410098        2.0490510194        2.3422862998
 H         -0.2897392697        0.8124741511       -1.5450311411
 C         -0.7931583698        1.2331168408       -0.6874215610
 C         -0.0965779899        2.0788706405        0.1642491294
 C         -0.7496304400        2.5765960001        1.2861240194
 C         -2.0650404901        2.2343401702        1.5456780391
 C         -2.7523156700        1.3832202705        0.6984583587
 C         -2.1046027299        0.8728166409       -0.4184421914
 N         -2.7880559399       -0.0213336488       -1.2698472018
 S         -3.3027379101       -1.4532165890       -0.5495685124
 O         -2.4598214003       -1.8172831595        0.5675265476
 O         -3.3977153600       -2.4155327086       -1.6259095527
 C         -4.9435717702       -1.0667679490        0.0251596475
 C         -5.8806437700       -0.6605222986       -0.9048707925
 C         -7.1624098800       -0.3575039286       -0.4743121026
 C         -7.4844465002       -0.4678709491        0.8703850473
 C         -6.5333925304       -0.8808753695        1.7908817173
 C         -5.2488049804       -1.1843087795        1.3669062174
 H         -4.4741539705       -1.5033233498        2.0459708474
 H         -6.7851169206       -0.9667671699        2.8357575973
 H         -8.4826597703       -0.2311233191        1.2032890573
 H         -7.9048225199       -0.0363501983       -1.1869566126
 H         -5.5894899198       -0.5930024083       -1.9397150324
 H         -2.2578871098       -0.2409017085       -2.1026061718
 H         -3.7739983801        1.1050076805        0.9000605985
 H         -2.5586189502        2.6294256599        2.4204773492
 H         -0.2084093801        3.2175072998        1.9672438397
 C          1.3594319202        2.3943781704       -0.0821310503
 H          1.6679771001        3.1472561101        0.6551720500
 C          1.6026672804        2.9553487009       -1.4685526201
 C          1.2311335406        4.3792874310       -1.7488171796
 C          2.6741154506        3.9842211808       -1.6616475495
 H          3.2590279707        3.9536870311       -2.5686754695
 H          3.2359241005        4.2902317505       -0.7909139894
 H          0.8145069906        4.9554282608       -0.9365650595
 H          0.8225720208        4.6234244614       -2.7172838796
 H          1.4654682505        2.2321770012       -2.2610884103
 O          1.7637789802        0.0000038010       -1.7946969411
