  62
        -98.93099269
 C          2.0340890298        1.3064105259        0.2842328025
 C          2.1766902539        0.3840971591       -0.7811788157
 C          2.4838570845       -1.0057013777       -0.3921196716
 C          2.5664318490       -1.3301690278        0.9092393179
 C          2.9244845066       -2.6843404763        1.4536994036
 C          4.4441775570       -2.9195566802        1.3369056025
 C          4.8371106252       -4.0439589073        0.3783556673
 H          5.9138348612       -3.9705577374        0.2121691225
 H          4.6414593634       -5.0045319114        0.8591991061
 C          4.1227119145       -4.0446351227       -0.9763827843
 H          4.6802089743       -4.7184520333       -1.6304064993
 H          3.1248485221       -4.4717344352       -0.8658860911
 C          3.9956437637       -2.6808917657       -1.6672932372
 H          4.1537433338       -2.8258793863       -2.7378711303
 H          4.7726284323       -1.9994265763       -1.3203269858
 C          2.6203832846       -2.0056940211       -1.5071676377
 H          2.3987615627       -1.4389859196       -2.4168162351
 H          1.8415675264       -2.7676165956       -1.4054081146
 H          4.9092114500       -1.9854076959        1.0153733197
 H          4.8522234812       -3.1512482923        2.3218073453
 H          2.6141325557       -2.7030141837        2.4987261123
 H          2.3719858670       -3.4508293291        0.9144206099
 O          2.4082494364       -0.4198040383        1.9056454130
 C          2.1189189627        0.9010836077        1.6184725100
 O          1.9783165986        1.6250260706        2.6261895521
 H         -0.3527911787        1.1062908003       -0.6861844330
 C         -0.7219301555        1.9419635764       -0.1096629202
 C          0.1580563624        2.9047763523        0.3625076043
 C         -0.3498295347        3.9694187042        1.0975759838
 C         -1.7057293958        4.0601090812        1.3582501380
 C         -2.5744126865        3.0784939393        0.9171854011
 C         -2.0751534464        2.0085845827        0.1828470812
 N         -2.9180517132        0.9823016832       -0.2760566493
 S         -2.2989508801       -0.5932667918       -0.2292287890
 O         -1.5238483646       -0.7868988631        0.9760314203
 O         -1.6345726127       -0.8696403955       -1.4774128839
 C         -3.8186995951       -1.5248778889       -0.1465648686
 C         -4.2986378315       -1.9277174691        1.0852915414
 C         -5.5013907528       -2.6143381390        1.1444037510
 C         -6.2015465908       -2.8816211170       -0.0225121158
 C         -5.7066542186       -2.4717842268       -1.2517753529
 C         -4.5040827194       -1.7861450976       -1.3181529234
 H         -4.0743909520       -1.4550562846       -2.2491935728
 H         -6.2519795971       -2.6838103772       -2.1571381135
 H         -7.1376508881       -3.4149209275        0.0265312839
 H         -5.8861498266       -2.9370552394        2.0983521405
 H         -3.7147758664       -1.7037268496        1.9638998789
 H         -3.8445778039        1.0267220488        0.1271081822
 H         -3.6283005522        3.1339924890        1.1437235048
 H         -2.0873996902        4.8915260109        1.9310383431
 H          0.3287536888        4.7138845904        1.4873048075
 C          1.6382240535        2.7643659028        0.1037486995
 H          2.1601361493        3.3173474245        0.9028524318
 C          2.0652707874        3.3724400007       -1.2226991688
 C          1.1151200434        3.6019796460       -2.3551848753
 C          1.6490275664        4.7683025471       -1.5825026369
 H          2.3735449619        5.4132337833       -2.0559827955
 H          0.9697607881        5.2767747232       -0.9156538370
 H          0.0830882719        3.3194045254       -2.2131623982
 H          1.4776591521        3.4219963322       -3.3554316243
 H          3.0735534273        3.0797127959       -1.4944298992
 O          2.0665687258        0.6786802017       -1.9992399885
