  62
        -98.94738596
 C         -2.5650846722       -0.1269865936       -0.4027543224
 C         -2.1763453344       -0.6989584181        0.8327611345
 C         -1.7401840684       -2.1014637449        0.7803069127
 C         -1.7174312267       -2.7407664329       -0.4031032801
 C         -1.2703127900       -4.1594102544       -0.6071686161
 C          0.2238885148       -4.2394015300       -0.9453139644
 C          1.1222847510       -3.4598366375        0.0153224720
 H          2.1561570621       -3.6435549081       -0.2878431459
 H          0.9459950289       -2.3882065484       -0.1101714618
 C          0.9488496513       -3.8311186537        1.4946742783
 H          1.9382760322       -3.9184607212        1.9481702982
 H          0.4636306514       -4.8048522144        1.5796628464
 C          0.1743312170       -2.7979115928        2.3156100537
 H          0.5824430692       -1.8033338786        2.1200234898
 H          0.3283884145       -3.0184907534        3.3757014510
 C         -1.3399727842       -2.7522887598        2.0741389241
 H         -1.7567904856       -3.7600548231        2.1436726946
 H         -1.7838415632       -2.1397381891        2.8645723750
 H          0.3747529484       -3.8383668403       -1.9504735074
 H          0.5187364644       -5.2908921172       -0.9486296293
 H         -1.8427020653       -4.5806885088       -1.4358453000
 H         -1.4800779622       -4.7313397961        0.2948130825
 O         -2.0865325919       -2.1538099167       -1.5717407994
 C         -2.5001919768       -0.8327658668       -1.6023715925
 O         -2.7920962572       -0.4101885162       -2.7416406115
 O         -2.2099796317       -0.0754024168        1.9264115883
 C         -3.0001175159        1.3263707489       -0.4611400335
 C         -1.8858850139        2.2120504772        0.0435557129
 C         -2.0936163111        3.3204005668        0.8547030958
 C         -1.0197913068        4.0761972269        1.2933187722
 C          0.2759713826        3.7376287818        0.9492344233
 C          0.4923805118        2.6398083013        0.1241531365
 C         -0.5863526637        1.9044572495       -0.3365154184
 H         -0.4066102039        1.0544107865       -0.9794203867
 N          1.7917248385        2.2603474362       -0.2660183555
 S          2.0975103963        0.5950460288       -0.2957886107
 O          1.6449217455        0.0578924684       -1.5556789857
 O          1.5725433894       -0.0207922930        0.8996515680
 C          3.8802879461        0.5904337688       -0.2605519647
 C          4.5414183789        0.2486805274        0.9034405564
 C          5.9274611094        0.2772921634        0.9197171060
 C          6.6237097858        0.6481280387       -0.2205933805
 C          5.9456376160        0.9869934988       -1.3825193005
 C          4.5605012867        0.9584349774       -1.4062708460
 H          3.9899972771        1.2033782061       -2.2870329345
 H          6.4901736381        1.2717569455       -2.2682409130
 H          7.7018652644        0.6706368468       -0.2050390283
 H          6.4568693865        0.0104026170        1.8200775282
 H          3.9564208503       -0.0378620359        1.7626707757
 H          2.5066594193        2.7452680090        0.2609322887
 H          1.1127193061        4.3140555272        1.3138573989
 H         -1.1942488388        4.9317402685        1.9281416688
 H         -3.0949468912        3.5855850892        1.1524723390
 H         -3.1587245241        1.5526960522       -1.5266853427
 C         -4.3072116893        1.5203951196        0.2795655665
 C         -5.2830038589        2.5663454706       -0.1669122668
 C         -5.5831940698        1.1160429429       -0.3936162256
 H         -6.3531229101        0.6465610062        0.1998529879
 H         -5.5080252183        0.7262560194       -1.3986836696
 H         -5.8529745874        3.0934358379        0.5832730521
 H         -5.0159057276        3.1661518717       -1.0238722807
 H         -4.2150240224        1.3202187424        1.3408283482
