  62
        -98.94580613
 C          1.0498194419        1.1420698080       -0.4413941686
 C          2.0405519644        1.2944009995        0.5626291619
 C          2.8147453792        0.0974872166        0.9113465710
 C          2.5212638239       -1.0685996271        0.3088461562
 C          3.2456747392       -2.3626514956        0.5408458370
 C          4.4102692277       -2.5340479166       -0.4445124722
 C          5.3235492277       -1.3118172824       -0.5367597903
 H          6.1259667456       -1.5568669233       -1.2357882114
 H          4.7623734299       -0.4801452088       -0.9685337018
 C          5.9295593709       -0.8704751839        0.8027212015
 H          5.8571823173       -1.6817013931        1.5280528784
 H          6.9911177653       -0.6609606624        0.6554629154
 C          5.3046258355        0.3940773657        1.3952040601
 H          5.9421135797        0.7368604593        2.2146076870
 H          5.2896426254        1.1839399514        0.6400546435
 C          3.8852607537        0.2388221338        1.9565744199
 H          3.8537818096       -0.6009047847        2.6546372141
 H          3.6434044505        1.1510901688        2.5101353767
 H          3.9978778144       -2.7287581136       -1.4369787381
 H          4.9937441649       -3.4050852001       -0.1407192630
 H          3.6135557146       -2.3864313476        1.5650270501
 H          2.5386004269       -3.1826386058        0.4028551767
 O          1.5502484607       -1.1876826579       -0.6275862467
 C          0.7918525625       -0.0960029215       -1.0311840633
 O         -0.0514889738       -0.3807594570       -1.9033749911
 H         -1.5099111546        0.3659259098       -0.2402912042
 C         -1.8003922177        1.2926309287        0.2265315656
 C         -1.0307668084        2.4316127692        0.0458797836
 C         -1.4460200139        3.6162990276        0.6435073566
 C         -2.5953776598        3.6515340256        1.4126180048
 C         -3.3350679388        2.5019862133        1.6265812606
 C         -2.9266629895        1.3132200433        1.0343791991
 N         -3.6284539393        0.1142414882        1.2330454698
 S         -2.7478710652       -1.2966193558        1.4550294064
 O         -3.6392771717       -2.1573424225        2.2089938894
 O         -1.4667584493       -1.0339673758        2.0717274059
 C         -2.5401581394       -1.9981341935       -0.1652080215
 C         -1.4178900642       -2.7629769143       -0.4069141299
 C         -1.2686369380       -3.3633514032       -1.6457985815
 C         -2.2423890027       -3.1902933561       -2.6155267363
 C         -3.3659160928       -2.4212152189       -2.3558351516
 C         -3.5225121565       -1.8198899829       -1.1178919123
 H         -4.3783418541       -1.2081802241       -0.8848336217
 H         -4.1173110762       -2.2832711789       -3.1168452312
 H         -2.1193220314       -3.6517668466       -3.5827568249
 H         -0.3873636144       -3.9496017799       -1.8517625665
 H         -0.6734631872       -2.8531632464        0.3693201507
 H         -4.4018854458        0.1726932688        1.8801097533
 H         -4.2148358665        2.5204751850        2.2516718379
 H         -2.9072794743        4.5781071109        1.8700399475
 H         -0.8521999208        4.5093809113        0.5181723244
 C          0.2351318028        2.3781360353       -0.7786817102
 H          0.8600360995        3.2310062743       -0.4784477142
 C         -0.0965253937        2.5211062672       -2.2517566857
 C         -0.3499484071        3.8845747595       -2.8185159706
 C          0.9048567369        3.1462894865       -3.1741800539
 H          1.0073662993        2.7432595824       -4.1702323283
 H          1.8356978328        3.4862657145       -2.7435792855
 H         -1.1142362143        3.9924365013       -3.5724062970
 H         -0.2662275140        4.7303737128       -2.1534014492
 H         -0.6816089992        1.6963562487       -2.6368466030
 O          2.2711214081        2.3934644524        1.1380836177
