  62
        -98.94543378
 C         -1.7830679874       -1.4396101854        0.2173834133
 C         -1.5632420700       -0.1056131509       -0.2048962996
 C         -2.5871289384        0.8642747387        0.2054669223
 C         -3.6354684858        0.4620501998        0.9461801129
 C         -4.7456791034        1.3388162678        1.4593111044
 C         -5.8677838324        1.5886745742        0.4422939737
 C         -5.5071574020        2.5313505935       -0.7065580750
 H         -6.4394164288        2.7900632415       -1.2127189826
 H         -5.0910320098        3.4538810490       -0.3006935306
 C         -4.5366564018        1.9337433925       -1.7348611833
 H         -4.5128817111        0.8471727349       -1.6238480849
 H         -4.9006169021        2.1437600360       -2.7432680071
 C         -3.1084446815        2.4715268293       -1.6460442751
 H         -2.5018499410        1.9535593075       -2.3930188947
 H         -3.1037796496        3.5368464226       -1.8869089684
 C         -2.4437131649        2.2758264200       -0.2771801510
 H         -2.8654522967        2.9708268160        0.4483522261
 H         -1.3751123241        2.4754627197       -0.3821256019
 H         -6.1930450702        0.6276181859        0.0371287225
 H         -6.7104490518        2.0206493161        0.9871634605
 H         -4.3355362152        2.2929687935        1.7912075113
 H         -5.1730980102        0.8249735580        2.3230734113
 O         -3.7992382554       -0.8280260583        1.3453993398
 C         -2.8863516526       -1.8065636301        0.9884078853
 O         -3.1597282803       -2.9464039647        1.4167703568
 O         -0.5719493593        0.2615065228       -0.8861845017
 C         -0.7821304281       -2.5256458523       -0.1399933604
 C          0.5593159206       -2.1329910305        0.4276778712
 C          0.7002791128       -2.0616543008        1.8112675845
 C          1.8887162672       -1.6471880595        2.3807796000
 C          2.9594468549       -1.2820888783        1.5826750330
 C          2.8251194240       -1.3413054434        0.2027803821
 C          1.6358824138       -1.7779734263       -0.3673646491
 H          1.5493141682       -1.8149242295       -1.4414410920
 N          3.9001746336       -0.9549279189       -0.6192591598
 S          4.6309811359        0.5198575714       -0.3116931522
 O          5.3202736134        0.8575523240       -1.5370312717
 O          5.4565965130        0.4048376647        0.8649392089
 C          3.3013485352        1.6693330506       -0.0130987388
 C          3.0013762394        2.0508825589        1.2783752986
 C          1.9464960853        2.9237415031        1.4889766682
 C          1.2155149276        3.3973181666        0.4110387155
 C          1.5282496290        3.0025929069       -0.8803442754
 C          2.5782882287        2.1266414367       -1.0962161883
 H          2.8541547505        1.8046506658       -2.0874600108
 H          0.9542890472        3.3674409097       -1.7170262490
 H          0.3972323617        4.0803961541        0.5790399094
 H          1.6969494992        3.2307698492        2.4921029506
 H          3.6001925564        1.6693831017        2.0889860493
 H          3.6974497160       -1.0399576731       -1.6050861766
 H          3.8924307903       -0.9496422340        2.0077406409
 H          1.9832908169       -1.6020363092        3.4552486466
 H         -0.1433743322       -2.3289261315        2.4335219770
 H         -1.1215930906       -3.4364557124        0.3719633880
 C         -0.7757256632       -2.7779424843       -1.6327672584
 C         -0.2218679403       -4.0630045760       -2.1689737567
 C         -1.6989494899       -3.8116281588       -2.2006756828
 H         -2.1690560303       -3.6158464125       -3.1528660971
 H         -2.3274916453       -4.3521634557       -1.5079679935
 H          0.3210210916       -4.0442518405       -3.1019621863
 H          0.1555610455       -4.7794342315       -1.4551202502
 H         -0.6271491305       -1.8750927348       -2.2136269864
