  62
        -98.94373894
 C          1.6134187440       -0.0387481619       -0.8531998235
 C          2.8967904861        0.2964180594       -1.3468650146
 C          4.0294428160       -0.3423550702       -0.6676574307
 C          3.8030152381       -1.1971011073        0.3466673222
 C          4.8528632775       -1.9436430820        1.1244851866
 C          5.4724540571       -1.1342381408        2.2719798808
 C          6.4266653030       -0.0198643928        1.8406100599
 H          7.1752410243       -0.4267965139        1.1600504708
 H          6.9510784332        0.3179662003        2.7367382935
 C          5.7373700011        1.1868861744        1.1885953311
 H          6.1384155897        2.1094844380        1.6144471835
 H          4.6698822439        1.1656547394        1.4202322770
 C          5.9131961001        1.2743919894       -0.3275151015
 H          6.9679503107        1.4287428129       -0.5658787099
 H          5.3568469583        2.1436870498       -0.6876050982
 C          5.4142096068        0.0421977148       -1.0938130448
 H          6.1019168205       -0.7915156775       -0.9538504525
 H          5.3777196233        0.2917039472       -2.1571522937
 H          6.0268931735       -1.8335833639        2.9020461869
 H          4.6663884720       -0.7103708510        2.8753223873
 H          5.6397399830       -2.2805718245        0.4491314592
 H          4.3596328671       -2.8203790528        1.5493681041
 O          2.5525482208       -1.5035285888        0.7822674541
 C          1.4284641270       -0.9188711927        0.2136279947
 O          0.3527520616       -1.2668061410        0.7335531595
 O          3.0864298375        1.0909840412       -2.3069790213
 C          0.3925220554        0.6036357650       -1.4877115374
 C         -0.3288183988        1.4234303843       -0.4474274349
 C          0.3602841815        2.4496508116        0.1952388095
 C         -0.2505711408        3.1970371569        1.1827318852
 C         -1.5573475280        2.9336357842        1.5563476110
 C         -2.2537649347        1.9119004464        0.9217120031
 C         -1.6412039015        1.1747979316       -0.0834098582
 H         -2.1999079286        0.3994749298       -0.5760060492
 N         -3.5547742613        1.5925774511        1.3138305357
 S         -4.6176994056        0.7146743632        0.3865839162
 O         -4.6622152690        1.1926809891       -0.9760120575
 O         -5.8644279777        0.7933462841        1.1180713518
 C         -4.0066895364       -0.9568923004        0.4310398766
 C         -3.5606302083       -1.4762549655        1.6289816042
 C         -3.0917681306       -2.7792358363        1.6590100032
 C         -3.0802011636       -3.5376432180        0.4990704895
 C         -3.5376682408       -3.0037960426       -0.6954571049
 C         -4.0070054289       -1.7011113117       -0.7317275398
 H         -4.3611274413       -1.2409347773       -1.6410005638
 H         -3.5244942160       -3.5947449811       -1.5976341650
 H         -2.7069577021       -4.5494137328        0.5248184381
 H         -2.7280033304       -3.1966490977        2.5839435973
 H         -3.5750742905       -0.8588387361        2.5116912486
 H         -3.9907131630        2.1930116302        1.9950601863
 H         -2.0314767194        3.5088310957        2.3367311854
 H          0.2944088196        3.9912035345        1.6708682763
 H          1.3847896523        2.6482467539       -0.0891926526
 H          0.7853781064        1.2865480854       -2.2551571868
 C         -0.4769483495       -0.4382712536       -2.1581383540
 C         -1.4155266602       -0.0342822163       -3.2540907259
 C         -0.1871902363       -0.8303504512       -3.5746959001
 H         -0.3020782016       -1.8662262199       -3.8558584922
 H          0.6313739407       -0.3311042103       -4.0722961315
 H         -2.3779123733       -0.5189414570       -3.3162252031
 H         -1.4360760210        1.0081359129       -3.5342673665
 H         -0.7923522798       -1.2222905154       -1.4782770001
