  62
        -98.94306520
 C          2.6867096346        1.2042847517        0.1368723402
 C          2.7005374203        0.2096469451       -0.8703640745
 C          3.8912013948       -0.6491434813       -0.8965365550
 C          4.8879777389       -0.4401901484       -0.0173454856
 C          6.1733421489       -1.2181510949        0.0652417281
 C          6.0647852567       -2.5187059968        0.8732188254
 C          5.2914761990       -3.6472733848        0.1898677459
 H          5.6923230478       -3.8061469392       -0.8116743332
 H          5.4793250110       -4.5568487899        0.7638734096
 C          3.7755107648       -3.4186476157        0.1099140550
 H          3.4865274274       -2.6370986852        0.8164350503
 H          3.2532375168       -4.3295074960        0.4109665449
 C          3.2628402670       -3.0413713559       -1.2800034176
 H          3.4229327845       -3.8742847856       -1.9682291793
 H          2.1868482610       -2.8616331682       -1.2107500995
 C          3.9144801950       -1.7855344801       -1.8734532663
 H          4.9363555666       -2.0015967390       -2.1843616345
 H          3.3371533544       -1.4814196110       -2.7499363344
 H          5.6038319936       -2.2931161063        1.8376712934
 H          7.0818588617       -2.8682421060        1.0651503229
 H          6.5319678517       -1.4414604267       -0.9398956078
 H          6.8993594161       -0.5671912207        0.5571532683
 O          4.8469934873        0.5474981228        0.9170979299
 C          3.7409965351        1.3737034672        1.0336446094
 O          3.8160668859        2.2078690083        1.9591232522
 H         -0.9318154502        2.1823098953       -1.0669187263
 C         -0.9076519757        1.4573904006       -0.2682686789
 C          0.2390700433        1.3044972862        0.4933566188
 C          0.2314482742        0.3663213519        1.5227991894
 C         -0.8857071296       -0.4079869201        1.7663890362
 C         -2.0230350947       -0.2652386949        0.9900086105
 C         -2.0324242653        0.6757929255       -0.0290444895
 N         -3.1780479917        0.8219851721       -0.8258577168
 S         -4.6846349645        0.9003586009       -0.0971015081
 O         -5.5230669389        1.6021531142       -1.0443276642
 O         -4.6027586784        1.4663765955        1.2293288419
 C         -5.2099467893       -0.7985426938       -0.0068856740
 C         -5.2115988327       -1.5428671604       -1.1701952608
 C         -5.6276433921       -2.8635643412       -1.1188260915
 C         -6.0356753938       -3.4138147683        0.0872243954
 C         -6.0318897101       -2.6522817479        1.2457169977
 C         -5.6159704297       -1.3306138181        1.2011490644
 H         -5.5914448474       -0.7026325052        2.0776418741
 H         -6.3498751836       -3.0817572569        2.1821934404
 H         -6.3586155766       -4.4422780706        0.1242084026
 H         -5.6314627389       -3.4591415027       -2.0175393841
 H         -4.8896015934       -1.0789059366       -2.0875283185
 H         -3.0864423047        1.5054266416       -1.5628889597
 H         -2.8963850406       -0.8698767918        1.1715303256
 H         -0.8721190252       -1.1337226010        2.5655754873
 H          1.1206769712        0.2528091526        2.1288013598
 C          1.4870748561        2.1246485902        0.2718885986
 H          1.6627020967        2.7247373241        1.1768023597
 C          1.4086489500        3.0554038365       -0.9200991461
 C          0.7463025751        4.3934127682       -0.7898614757
 C          2.2367766851        4.3035533992       -0.9178787285
 H          2.6958541744        4.6199592481       -1.8424398866
 H          2.8405201594        4.4959479277       -0.0428223628
 H          0.1838758975        4.7768827489       -1.6282307345
 H          0.3344952015        4.6562882982        0.1730688272
 H          1.3115554277        2.5229434841       -1.8594375517
 O          1.7730814842        0.0472497529       -1.7048833848
