  62
        -98.93949163
 C          2.6237365860        1.1985075859        0.2864102218
 C          2.5290933786        0.1721605896       -0.6862324197
 C          3.7350372755       -0.6545611986       -0.8633127489
 C          4.8295995873       -0.4023090780       -0.1245252714
 C          6.1028380519       -1.1950442772       -0.1732200626
 C          6.0871802442       -2.3350675567        0.8547189000
 C          4.8149365810       -3.1819253817        0.8188681222
 H          4.9298733157       -3.9721619613        1.5639434411
 H          3.9676951302       -2.5669848271        1.1312982551
 C          4.5074476091       -3.8089126423       -0.5481672083
 H          5.4055319764       -3.8067497634       -1.1669890552
 H          4.2199916345       -4.8516394770       -0.3979300506
 C          3.3641833179       -3.1377818602       -1.3118036239
 H          2.4888671868       -3.0522379237       -0.6627298997
 H          3.0888028836       -3.7850845277       -2.1486593558
 C          3.6714665860       -1.7505781208       -1.8896538110
 H          4.5952300999       -1.7894151113       -2.4706912204
 H          2.8517432214       -1.4834956498       -2.5631179361
 H          6.9556787938       -2.9717746404        0.6767054501
 H          6.1822938302       -1.9021388321        1.8532887539
 H          6.2363802484       -1.5969964493       -1.1756762004
 H          6.9337989195       -0.5248392196        0.0535304987
 O          4.8819875529        0.5891235652        0.8016400304
 C          3.7818529588        1.3936795462        1.0446652229
 O          3.9554657613        2.2350136897        1.9490144419
 H         -0.7611306132        1.9922484602       -1.0300947111
 C         -0.8507836845        1.3684221663       -0.1541739925
 C          0.1893305203        1.3105831258        0.7590626183
 C          0.0577415627        0.4743578792        1.8640690462
 C         -1.0831728502       -0.2836308045        2.0460195927
 C         -2.1170742002       -0.2273179604        1.1277999570
 C         -1.9943946402        0.5998385654        0.0203662907
 N         -3.0328234600        0.6440886509       -0.9256825211
 S         -4.5913599820        0.9382983395       -0.3836949920
 O         -5.2884124134        1.5054610253       -1.5178348403
 O         -4.5887363403        1.7275382026        0.8268396312
 C         -5.2504411039       -0.6821885712       -0.0526364226
 C         -5.7913411361       -0.9642118024        1.1863593763
 C         -6.3147455470       -2.2268773953        1.4176392952
 C         -6.2885787703       -3.1795771713        0.4107650903
 C         -5.7425331334       -2.8799907630       -0.8286133506
 C         -5.2191199179       -1.6192708293       -1.0667371170
 H         -4.7887254357       -1.3466754559       -2.0159661400
 H         -5.7229021221       -3.6239219364       -1.6087381646
 H         -6.6958223154       -4.1616104602        0.5928533505
 H         -6.7395091304       -2.4617234442        2.3804373550
 H         -5.7848079838       -0.1935416501        1.9406461119
 H         -2.8178889621        1.1991649525       -1.7410522512
 H         -3.0083886138       -0.8190838348        1.2595901288
 H         -1.1685947282       -0.9272526822        2.9085573265
 H          0.8685113498        0.4249069282        2.5788764816
 C          1.4551384505        2.1166182312        0.6050503703
 H          1.6968661467        2.5488208092        1.5900096802
 C          1.3027197685        3.2909937681       -0.3506490476
 C          2.5073272999        3.9492008938       -0.9524073624
 C          1.5600979413        3.1816323684       -1.8224079027
 H          0.9214195933        3.7365573947       -2.4948492014
 H          1.8731866334        2.2248297266       -2.2087493290
 H          2.5209513261        5.0261441998       -1.0271399254
 H          3.4723485505        3.5142742670       -0.7362611487
 H          0.4962353841        3.9521678030       -0.0457613448
 O          1.5059027932       -0.0528081956       -1.3817542258
