  62
        -98.95113764
 C         -1.9865180787        0.9185508483       -0.1134009811
 C         -1.5207786803        1.8468393919        0.8497081379
 C         -0.4767837578        2.7765053280        0.3979349108
 C         -0.0592399803        2.7265273999       -0.8799180618
 C          1.0195564828        3.5879478945       -1.4683318486
 C          2.3962090931        2.9167193659       -1.3713387147
 C          2.7373135934        2.3904799538        0.0227482644
 H          2.0832704770        1.5512445554        0.2703745861
 H          3.7539283803        1.9918008468       -0.0193416575
 C          2.6444808172        3.4350145669        1.1434855287
 H          3.5158144560        3.3259941041        1.7926567379
 H          2.6744438771        4.4413215371        0.7227515490
 C          1.4086019474        3.2883241898        2.0340482798
 H          1.5638168413        3.8873644007        2.9358823145
 H          1.3122737025        2.2442607769        2.3462554019
 C          0.0802244513        3.7367452560        1.4095466298
 H         -0.6625859836        3.7925818886        2.2109868970
 H          0.1941028346        4.7336443012        0.9773505641
 H          2.4253220096        2.0746466165       -2.0665557410
 H          3.1522104822        3.6411392689       -1.6799074558
 H          0.7840054869        3.7584134773       -2.5203122654
 H          1.0334369562        4.5448102822       -0.9500766114
 O         -0.5617135482        1.8525743413       -1.7879727990
 C         -1.5021082892        0.8981037407       -1.4208091376
 O         -1.8160716862        0.1157326772       -2.3372517089
 O         -1.9611143659        1.8944852454        2.0303582535
 C         -2.9773615941       -0.1507387450        0.3171556824
 C         -2.2808135699       -1.4892840293        0.2535068710
 C         -2.7432309135       -2.5750117298       -0.4775353845
 C         -2.0060724617       -3.7461664762       -0.5270637529
 C         -0.7945296906       -3.8530340234        0.1307977997
 C         -0.3277009331       -2.7757456481        0.8770106935
 C         -1.0844778492       -1.6174931123        0.9504456669
 H         -0.7225253398       -0.7882043644        1.5411973673
 N          0.8962982092       -2.8517763450        1.5663792590
 S          2.0237779978       -1.6217935280        1.4601333059
 O          3.1900345266       -2.1448795595        2.1369690586
 O          1.4761156250       -0.3979487016        1.9836098202
 C          2.3783656979       -1.4490469665       -0.2782505188
 C          3.5448803417       -1.9820062861       -0.7906451838
 C          3.7948572159       -1.8649732502       -2.1485609297
 C          2.8742192304       -1.2313396800       -2.9701300786
 C          1.7042162749       -0.7074352976       -2.4420005593
 C          1.4551304814       -0.8139619558       -1.0833955145
 H          0.5539012187       -0.4114434728       -0.6483704321
 H          0.9717040936       -0.2202630966       -3.0675532592
 H          3.0669369719       -1.1431144201       -4.0277218272
 H          4.7041215570       -2.2696119499       -2.5631271577
 H          4.2323596831       -2.4641294847       -0.1147065322
 H          1.3574974550       -3.7472354925        1.4903948829
 H         -0.2133898728       -4.7607982966        0.0726965440
 H         -2.3737556976       -4.5829688213       -1.1010675008
 H         -3.6736823647       -2.5021257819       -1.0156104000
 H         -3.2012518217        0.0681305126        1.3717704774
 C         -4.2600505408       -0.0807271181       -0.4811939225
 C         -5.5308799204       -0.6243753645        0.0980902195
 C         -5.3411570853        0.8558957204       -0.0354575897
 H         -5.9070643441        1.3847026792       -0.7875889632
 H         -5.1607548713        1.4331217588        0.8598792200
 H         -6.2322722692       -1.1115712219       -0.5620817234
 H         -5.4850893495       -1.0532559247        1.0877901195
 H         -4.0971590014       -0.1820849590       -1.5477140230
