  62
        -98.94173519
 C         -2.4508787860       -0.9302057612        0.2537565323
 C         -1.8206839475       -0.0869305763       -0.6949726931
 C         -2.2274327437        1.3250923534       -0.6558498890
 C         -3.1612948351        1.7367797831        0.2196112004
 C         -3.6905311215        3.1385473444        0.3572853373
 C         -2.8307362896        4.0433406650        1.2509344376
 C         -1.4909993922        4.4699943950        0.6489876923
 H         -1.6587939010        4.9018486587       -0.3378558283
 H         -1.0905366800        5.2599068239        1.2873564619
 C         -0.4542634695        3.3415453523        0.5492699907
 H         -0.7551394187        2.5154877325        1.1985377844
 H          0.5117734741        3.6973032035        0.9148879742
 C         -0.2328534110        2.8073773580       -0.8659127342
 H          0.4854977706        1.9853210300       -0.8134200874
 H          0.2002374088        3.5929031681       -1.4877492355
 C         -1.5006770343        2.2817587808       -1.5510456496
 H         -2.1489318898        3.1091358292       -1.8373016621
 H         -1.2023674522        1.7379814203       -2.4501197316
 H         -2.6572995986        3.5321536313        2.2010257744
 H         -3.4138612595        4.9429249013        1.4608894412
 H         -4.6822863880        3.0544009810        0.8070451965
 H         -3.7935111650        3.5906010312       -0.6293336680
 O         -3.7573639836        0.8908091682        1.1024251280
 C         -3.3865832091       -0.4434679503        1.1698434230
 O         -3.9512650065       -1.0849763241        2.0788254904
 O         -0.9608092548       -0.4729714243       -1.5264364460
 C         -2.0896955844       -2.3998789117        0.3739677992
 C         -0.5943512872       -2.5886497157        0.2658576136
 C         -0.0011992861       -3.5672386188       -0.5205380033
 C          1.3764262799       -3.7015457014       -0.5528838748
 C          2.1921158028       -2.8611464455        0.1806991933
 C          1.6111211079       -1.8619129621        0.9540647617
 C          0.2301436325       -1.7509071633        1.0083977882
 H         -0.2197847842       -0.9818052710        1.6252603706
 N          2.4140760466       -0.9891373208        1.7077031662
 S          3.8145981714       -0.2946952870        1.1246094435
 O          4.7423214563       -1.3363906668        0.7592066662
 O          4.2411860334        0.5985596806        2.1777098314
 C          3.3999489448        0.6628469788       -0.3247347772
 C          3.5171031013        2.0375583508       -0.2583157137
 C          3.2392533788        2.7925055138       -1.3860984377
 C          2.8381894522        2.1632523492       -2.5546370447
 C          2.7143801002        0.7835652274       -2.6026792856
 C          3.0033513286        0.0213330386       -1.4817744433
 H          2.9203803467       -1.0525877148       -1.4976095723
 H          2.3905888344        0.2938142199       -3.5067875718
 H          2.6174054038        2.7499994087       -3.4322986770
 H          3.3331725828        3.8658860803       -1.3488486409
 H          3.8321673098        2.4836103953        0.6712362483
 H          1.8919669516       -0.3145982743        2.2462941110
 H          3.2659140965       -2.9554972826        0.1594349242
 H          1.8230544416       -4.4719147488       -1.1634414866
 H         -0.6120704681       -4.2198830916       -1.1214343073
 H         -2.3850736791       -2.6834440545        1.3986164081
 C         -2.8756807720       -3.3029192100       -0.5678106783
 C         -4.1724597593       -2.8595985959       -1.1749794963
 C         -2.9587979074       -3.0216008412       -2.0372025174
 H         -2.9266887230       -3.8543772939       -2.7243907358
 H         -2.4621203532       -2.1348785439       -2.3978708949
 H         -4.9680174591       -3.5848735617       -1.2600442143
 H         -4.5183837192       -1.8599393051       -0.9550034649
 H         -2.8259665388       -4.3457381262       -0.2704169155
