  62
        -98.93135467
 C         -1.8317524231       -1.7467863579       -0.0779119750
 C         -2.5741276089       -1.1070005561        0.9502057485
 C         -3.7417709678       -0.3210952432        0.5380511543
 C         -4.0695674790       -0.2655434349       -0.7647183368
 C         -5.2450558712        0.4562218009       -1.3693099220
 C         -5.2300200707        1.9925373304       -1.2519721889
 C         -5.9845741317        2.5412354662       -0.0344915586
 H         -6.7288722603        1.8073556309        0.2768281739
 H         -6.5331052663        3.4358216412       -0.3363184671
 C         -5.1193888148        2.9331168933        1.1670691324
 H         -5.7818440502        3.0689972905        2.0246803237
 H         -4.6423187235        3.8947433831        0.9641789350
 C         -4.0149525897        1.9461743357        1.5472624672
 H         -3.6182074177        2.2370267401        2.5220579679
 H         -3.1848166661        2.0320508331        0.8411005814
 C         -4.4573706064        0.4706200150        1.5931302857
 H         -5.5362679715        0.3872728035        1.4713773197
 H         -4.1815620921        0.0292887647        2.5529252025
 H         -5.7068665330        2.3827671439       -2.1526771651
 H         -4.1990549041        2.3467839900       -1.2549211980
 H         -6.1629768864        0.0674732355       -0.9224914042
 H         -5.2441500261        0.1791858819       -2.4255513535
 O         -3.3613819923       -0.9280321099       -1.7164472734
 C         -2.2196879705       -1.6706819767       -1.4150214027
 O         -1.7066396536       -2.1980777969       -2.4179559372
 O         -2.2683821007       -1.2024519100        2.1689058842
 C         -0.5891755932       -2.4801079834        0.4040652586
 C          0.3415991885       -1.4933662440        1.0669017113
 C          0.9905147885       -1.8124433438        2.2547111995
 C          1.8405095609       -0.9064901933        2.8619425165
 C          2.0782736660        0.3267198722        2.2818000156
 C          1.4386240405        0.6538385331        1.0926947133
 C          0.5704660881       -0.2492883519        0.4968813820
 H          0.0684277325        0.0290475760       -0.4190184020
 N          1.6710560557        1.8940914954        0.4555071458
 S          2.5315788780        1.8168113376       -0.9809047099
 O          2.7281144506        3.1891375699       -1.3910038601
 O          1.8464888873        0.9527531350       -1.9059680959
 C          4.0963340469        1.1027100152       -0.5039122862
 C          4.1851555244       -0.2657759707       -0.3419325113
 C          5.3775252534       -0.8098346213        0.1091082149
 C          6.4532047403        0.0184894116        0.3905129458
 C          6.3487813653        1.3908409516        0.2206165324
 C          5.1578357428        1.9415157367       -0.2248387873
 H          5.0309068472        3.0016395104       -0.3742906789
 H          7.1879003522        2.0324443999        0.4361624718
 H          7.3785587924       -0.4092709165        0.7424373209
 H          5.4579695358       -1.8769783451        0.2390441627
 H          3.3320353926       -0.8809669485       -0.5774039541
 H          2.1010852543        2.5809715930        1.0605599725
 H          2.7432625474        1.0375075496        2.7492575756
 H          2.3255507081       -1.1628985035        3.7910763256
 H          0.8042615582       -2.7723743775        2.7130170157
 H         -0.9290317380       -3.1754356521        1.1907890777
 C          0.1245318032       -3.3109884999       -0.6489956804
 C          1.1608205795       -2.7414753393       -1.5656833062
 C          1.5663855565       -3.6928032895       -0.4819686855
 H          1.8656593366       -4.6906159472       -0.7646233535
 H          2.0988248904       -3.2926540481        0.3679007643
 H          1.1581365575       -3.0825484869       -2.5898198327
 H          1.4037879819       -1.6930433348       -1.4757044490
 H         -0.5309543618       -4.0571852577       -1.0837425990
