  62
        -98.94239593
 C          1.5612752696        1.3877822458        0.5370294521
 C          1.3923211180        0.2274130883       -0.2595301975
 C          2.2122038184       -0.9303365772        0.1289099753
 C          2.9778500914       -0.8758253574        1.2324376317
 C          3.8508853076       -1.9807227050        1.7623089168
 C          5.2365811085       -2.0474796963        1.1053685836
 C          5.2507022346       -2.5697837122       -0.3319052295
 H          6.2929832036       -2.7689257675       -0.5890598554
 H          4.7176873071       -3.5199776105       -0.3766506448
 C          4.6643159354       -1.5982184636       -1.3658248277
 H          4.6193790717       -0.5940753662       -0.9375870423
 H          5.3276658520       -1.5450789090       -2.2320296917
 C          3.2764651506       -1.9813307675       -1.8798017043
 H          2.9460473972       -1.2090661309       -2.5789939645
 H          3.3376238626       -2.9251648914       -2.4257397010
 C          2.2104856386       -2.1182182853       -0.7843452668
 H          2.3696412258       -3.0355508004       -0.2182244456
 H          1.2296229113       -2.1588227004       -1.2623446106
 H          5.6866303439       -1.0522820113        1.1363370588
 H          5.8550408430       -2.7093319107        1.7161784637
 H          3.3444992606       -2.9389805370        1.6434772745
 H          3.9846597904       -1.7878080400        2.8290818494
 O          3.0262323472        0.2232105333        2.0334702404
 C          2.3445673599        1.3814351468        1.6935130018
 O          2.4976649424        2.3193083816        2.5026502743
 O          0.6096624205        0.1464882509       -1.2387012651
 C          0.8410253089        2.6847608423        0.2119613443
 C         -0.5973214449        2.4020586466       -0.1471975993
 C         -1.1942791332        2.8077585866       -1.3328994685
 C         -2.5212700261        2.5070830524       -1.5877580005
 C         -3.2779437320        1.7969033283       -0.6748701188
 C         -2.6870090400        1.3774535580        0.5105641219
 C         -1.3628820556        1.6914819701        0.7699651552
 H         -0.9040467036        1.3651095213        1.6960759891
 N         -3.4406257280        0.6428441560        1.4463249234
 S         -4.2910217895       -0.6939045038        0.9050545463
 O         -5.4413741913       -0.2520122949        0.1572601496
 O         -4.5669118294       -1.4658790741        2.0962964330
 C         -3.1758598517       -1.5872271263       -0.1600654676
 C         -3.2510014720       -1.4254340199       -1.5280669110
 C         -2.3541486435       -2.1095569784       -2.3322300639
 C         -1.4062924691       -2.9410487077       -1.7584687485
 C         -1.3431281357       -3.0924534803       -0.3818159877
 C         -2.2312816318       -2.4047554842        0.4274653779
 H         -2.2181536664       -2.5024741804        1.5016213640
 H         -0.6027602103       -3.7382612230        0.0630051923
 H         -0.7124991989       -3.4759751847       -2.3882699752
 H         -2.3952795974       -1.9896711627       -3.4027200929
 H         -4.0099355555       -0.7802049144       -1.9382396629
 H         -2.9226815643        0.4069947618        2.2803580215
 H         -4.3120952093        1.5555125834       -0.8595681429
 H         -2.9722101798        2.8281300152       -2.5144644524
 H         -0.6167726798        3.3402177876       -2.0701475221
 H          0.8432003163        3.2582605202        1.1541641707
 C          1.5619833056        3.5418255332       -0.8189461280
 C          3.0479909999        3.4531715562       -0.9947983577
 C          2.1352633278        2.9603381338       -2.0749503770
 H          2.0649195717        3.5358412750       -2.9863142524
 H          2.0358803223        1.8966221380       -2.2208825998
 H          3.5989838214        4.3670620247       -1.1594948340
 H          3.5815369008        2.7261672894       -0.3994335613
 H          1.1326555392        4.5363284523       -0.8912153975
