  62
        -98.93927448
 C          2.4087670569        0.9068383710        0.2122913030
 C          2.7062861458       -0.4094199988        0.6502320021
 C          3.7528022019       -1.1214121024       -0.0888387874
 C          4.3413605310       -0.5279178152       -1.1430103850
 C          5.4051140366       -1.1302086817       -2.0203597569
 C          6.8279172781       -0.9975566406       -1.4601956164
 C          7.1443483416       -1.8996139749       -0.2666525607
 H          6.8800398338       -2.9290127016       -0.5106091009
 H          8.2255138455       -1.8672257234       -0.1182464459
 C          6.4547139367       -1.4851733106        1.0406561214
 H          6.1009732342       -0.4551648714        0.9552709021
 H          7.1789175080       -1.5082982296        1.8580273346
 C          5.2823434005       -2.3770392294        1.4496821402
 H          4.8458881311       -1.9713995652        2.3660256293
 H          5.6454275396       -3.3840211186        1.6672072029
 C          4.1683364625       -2.4763483862        0.3992381482
 H          4.4924943841       -3.0979053252       -0.4354174517
 H          3.2964860375       -2.9434745632        0.8643401398
 H          7.5198730217       -1.2450109114       -2.2684652028
 H          6.9987136344        0.0454407579       -1.1840735615
 H          5.1792350531       -2.1820238405       -2.1986624318
 H          5.3590503567       -0.5981767153       -2.9729950052
 O          4.0057172563        0.7211692787       -1.5550780862
 C          3.0411291503        1.4751787256       -0.8944246749
 O          2.8616449037        2.5997086894       -1.3946167656
 O          2.1220458889       -0.9600552492        1.6230690071
 C          1.3330536413        1.6491216094        0.9866620803
 C         -0.0093000446        1.3564224248        0.3668423945
 C         -0.2794820711        1.6887615414       -0.9578672398
 C         -1.5038552872        1.3782038533       -1.5195586298
 C         -2.4759880675        0.7230411912       -0.7823245629
 C         -2.2064033674        0.3633704645        0.5305523326
 C         -0.9813408185        0.6918878798        1.0985888010
 H         -0.7698348484        0.3993979714        2.1182701567
 N         -3.1822966210       -0.3098765806        1.2829607590
 S         -3.9898048484       -1.6050800986        0.5829346928
 O         -4.4422535003       -2.4086766851        1.6974217118
 O         -3.1737837266       -2.2731320590       -0.4040376358
 C         -5.4026194396       -0.8505819173       -0.1962513825
 C         -5.6722814703       -1.1068241563       -1.5263049909
 C         -6.7835510567       -0.5188337811       -2.1104678193
 C         -7.6014442391        0.3098512047       -1.3578311660
 C         -7.3183716622        0.5547851246       -0.0222630022
 C         -6.2101310398       -0.0311032362        0.5681081785
 H         -5.9579417274        0.1311339762        1.6026398671
 H         -7.9569216318        1.1997641465        0.5595634461
 H         -8.4644875084        0.7675055186       -1.8150410428
 H         -7.0049228662       -0.7086013199       -3.1484865144
 H         -5.0044556500       -1.7527387703       -2.0741153414
 H         -2.8857211643       -0.5396368348        2.2207168778
 H         -3.4276809699        0.4724598563       -1.2214364902
 H         -1.7041067724        1.6458902772       -2.5460439116
 H          0.4853112671        2.1826378817       -1.5385334380
 H          1.3418280876        1.1827916618        1.9847229556
 C          1.6225173418        3.1313683428        1.1747398221
 C          0.7457035108        4.2261430167        0.6517942120
 C          0.7771761926        3.9343220116        2.1197499469
 H          1.2611109478        4.6355760920        2.7824575208
 H         -0.0845272886        3.4435582020        2.5474445587
 H          1.2306133174        5.1189279998        0.2875514036
 H         -0.1404609687        3.9565881916        0.0998261421
 H          2.6871629420        3.3390671870        1.1831893755
