  62
        -98.93594284
 C         -2.3666747526       -1.4807841950        0.1607128394
 C         -2.4007334360       -0.3131795050       -0.6352874830
 C         -3.4112220476        0.7029221217       -0.2766021786
 C         -4.2485963164        0.4644484211        0.7482092228
 C         -5.3471043318        1.3379019761        1.2997323887
 C         -6.2515039168        2.0428735478        0.2773250294
 C         -6.0288391187        3.5547108275        0.2081704183
 H         -6.9367252470        4.0246658221       -0.1762796619
 H         -5.8719727414        3.9294577706        1.2217238224
 C         -4.8678869982        4.0009820636       -0.6790776934
 H         -5.1364024619        3.8548223301       -1.7276012966
 H         -4.7276892371        5.0736597040       -0.5264315810
 C         -3.5370488892        3.2919677281       -0.4196851047
 H         -3.3727372634        3.1643061838        0.6498330520
 H         -2.7352406348        3.9366829981       -0.7869974154
 C         -3.4116748467        1.9383884188       -1.1350839088
 H         -4.1940399475        1.8430238072       -1.8937164665
 H         -2.4612251486        1.8989640267       -1.6768685404
 H         -6.1194698766        1.5946213970       -0.7060552378
 H         -7.2868233176        1.8697538764        0.5751789873
 H         -5.9452457031        0.6743025385        1.9283503791
 H         -4.8972049986        2.0764834765        1.9680937358
 O         -4.1807856140       -0.6799044813        1.4871627170
 C         -3.2417897779       -1.6594179845        1.2341781760
 O         -3.2896633061       -2.6313011385        2.0137575138
 H          0.5515202375       -1.3738047142       -1.6483073023
 C          0.8485659630       -1.4316277854       -0.6133417392
 C          0.0122371855       -2.0379988363        0.3105532249
 C          0.4039746956       -2.0675145014        1.6461238944
 C          1.6033703461       -1.5060865625        2.0418768119
 C          2.4312250315       -0.8918600190        1.1176945768
 C          2.0408676445       -0.8425648956       -0.2130600244
 N          2.8654376426       -0.2031061588       -1.1559666521
 S          3.4269031808        1.3356138036       -0.7830510613
 O          2.5328275149        2.0345378391        0.1111648349
 O          3.6849618791        1.9659028601       -2.0597636567
 C          4.9834994433        1.0266980388        0.0273025912
 C          5.9052461119        0.2236246054       -0.6156723635
 C          7.1250947274       -0.0169612165       -0.0040811532
 C          7.4034202953        0.5495052661        1.2310125994
 C          6.4692745130        1.3565745049        1.8618898088
 C          5.2461760405        1.5997368907        1.2561010082
 H          4.4866808378        2.2149934103        1.7120444256
 H          6.6866887820        1.7961918330        2.8220966392
 H          8.3534922197        0.3603429088        1.7052956062
 H          7.8537876239       -0.6445725164       -0.4912902131
 H          5.6514057621       -0.1943644032       -1.5753571497
 H          2.4815934124       -0.2168395506       -2.0906134132
 H          3.3606761712       -0.4382975621        1.4212062534
 H          1.8958351767       -1.5411835991        3.0803745279
 H         -0.2555549034       -2.5225372871        2.3722493940
 C         -1.3424739909       -2.5814954936       -0.0730935838
 H         -1.5997640302       -3.3821161489        0.6327335379
 C         -1.4068991836       -3.1366306228       -1.4804574746
 C         -0.7236228613       -4.4351988979       -1.7837419827
 C         -2.2199459237       -4.3670079777       -1.7431004791
 H         -2.7659990746       -4.4338100647       -2.6722009901
 H         -2.7308586887       -4.8166523166       -0.9041797266
 H         -0.2169143695       -4.9314632697       -0.9699644289
 H         -0.2402428609       -4.5532204562       -2.7414121596
 H         -1.4100870013       -2.3724335462       -2.2472166192
 O         -1.6308852193       -0.1100233556       -1.6124179557
