  62
        -98.93363900
 C          2.2384627059        0.9101478233        0.1858291808
 C          2.4500781177       -0.2795840001        0.9177963894
 C          3.2156874323       -1.3505311842        0.2512868328
 C          3.6280268393       -1.1556738700       -1.0154207390
 C          4.4519978987       -2.0740798481       -1.8780671713
 C          5.9393478404       -2.0729874032       -1.4889052171
 C          6.2120163096       -2.1386477310        0.0116088344
 H          7.2889815519       -2.0214544343        0.1583303474
 H          5.7253814524       -1.2933454698        0.5015848752
 C          5.7863556696       -3.4360525788        0.6948373062
 H          6.1195067179       -3.3792019413        1.7343154387
 H          6.3055258360       -4.2748247999        0.2257859029
 C          4.2851916186       -3.7321243317        0.6932637282
 H          4.1122403077       -4.5378805343        1.4127221501
 H          3.9604131707       -4.1072735130       -0.2734716383
 C          3.4042050653       -2.5652054530        1.1285857887
 H          2.3945555907       -2.9463341410        1.3247545215
 H          3.7605419675       -2.1875643828        2.0938043780
 H          6.4267552652       -2.9126216433       -1.9872391539
 H          6.3859461940       -1.1503282213       -1.8675137553
 H          4.0444534998       -3.0801848624       -1.8500272482
 H          4.3605841481       -1.7064878316       -2.9024982075
 O          3.3622961768       -0.0058871370       -1.6988104156
 C          2.6686452478        1.0480112384       -1.1335164551
 O          2.5058221692        2.0224231278       -1.8913015465
 O          2.0187550664       -0.4488241133        2.0919996335
 C          1.4741770063        2.0473367829        0.8406283890
 C          0.1530652181        2.2332326865        0.1346378667
 C         -0.2343898699        3.4143995457       -0.4817825462
 C         -1.4602686822        3.4991252214       -1.1206383861
 C         -2.3217258848        2.4189509209       -1.1558918468
 C         -1.9485509281        1.2345247076       -0.5319656089
 C         -0.7224573786        1.1533160207        0.1099146010
 H         -0.4284178428        0.2323565515        0.5985700159
 N         -2.8105881717        0.1203215592       -0.5696894494
 S         -4.4389079454        0.4082358558       -0.2158509054
 O         -5.0760205806        0.9346909355       -1.3965433772
 O         -4.5515566433        1.2191457847        0.9762194808
 C         -5.0223147255       -1.2454529997        0.0978153318
 C         -5.0815987247       -1.7054054749        1.3996428631
 C         -5.5149558390       -3.0010300674        1.6333974490
 C         -5.8765641511       -3.8106083311        0.5670750817
 C         -5.8120914614       -3.3342939952       -0.7340584054
 C         -5.3806837885       -2.0395852282       -0.9748575270
 H         -5.3228834531       -1.6235461955       -1.9670824595
 H         -6.0967893280       -3.9662040754       -1.5597642886
 H         -6.2140511748       -4.8181638493        0.7520723384
 H         -5.5692664085       -3.3727411354        2.6439967896
 H         -4.7998918440       -1.0382829551        2.1986923315
 H         -2.4564360615       -0.6429776443       -0.0086484505
 H         -3.2792938285        2.4777997931       -1.6475198770
 H         -1.7486220604        4.4221593251       -1.6009571424
 H          0.4233066449        4.2675646653       -0.4700083067
 H          1.2622077329        1.7030813588        1.8636949755
 C          2.3171079214        3.3014777053        0.9146779810
 C          2.0055242472        4.3490301243        1.9400844121
 C          3.2283812604        3.4958485440        2.0880064159
 H          4.1955970064        3.9451975274        1.9201284306
 H          3.2294115534        2.7300331942        2.8500106667
 H          2.1337395924        5.3869807255        1.6730567777
 H          1.1742322387        4.1649290232        2.6038621210
 H          2.6774900055        3.6241804586       -0.0551099501
