  62
        -98.93865034
 C          1.8655365413        0.9840714830        0.3838074533
 C          2.1854863127       -0.1579298807       -0.3860598674
 C          3.5008147255       -0.7782049120       -0.1339674508
 C          4.3152548395       -0.2629603438        0.8048123758
 C          5.6717370049       -0.7112532596        1.3073135581
 C          6.5089376737       -1.7132719533        0.5163801882
 C          7.0174538090       -1.2006625003       -0.8304464535
 H          7.7624663906       -0.4221712997       -0.6475348526
 H          7.5179425977       -2.0256981106       -1.3421854193
 C          5.9546459573       -0.6134726438       -1.7557724410
 H          6.4521131567       -0.2953147358       -2.6760119211
 H          5.5235260768        0.2796182991       -1.2988561717
 C          4.8261831480       -1.5670270543       -2.1437297613
 H          4.2399535999       -1.0799798230       -2.9275720204
 H          5.2468877687       -2.4834630118       -2.5622206107
 C          3.8571209691       -1.9452206519       -1.0097085990
 H          2.9228441554       -2.2866311496       -1.4647326630
 H          4.2462263409       -2.7666062551       -0.4127214873
 H          5.9632088499       -2.6434380497        0.3878115851
 H          7.3822555035       -1.9428314610        1.1330471962
 H          6.2524167219        0.2057935653        1.4490217623
 H          5.4963809558       -1.1215690189        2.3081311618
 O          3.9546568810        0.8277497201        1.5413507674
 C          2.7506737230        1.4754497850        1.3481599684
 O          2.5842369279        2.4692360434        2.0827254361
 H         -0.5307791511       -0.6502895343       -0.2982998109
 C         -1.0248557206       -0.1637723482        0.5295769355
 C         -0.5715164696        1.0765020040        0.9562087976
 C         -1.2079058713        1.6820440988        2.0329760511
 C         -2.2702005618        1.0599515000        2.6663733733
 C         -2.7199355089       -0.1757879810        2.2374523925
 C         -2.0853038109       -0.7905300936        1.1659834815
 N         -2.5502765930       -2.0420502977        0.7083765826
 S         -4.1508591291       -2.0569263334        0.2067487086
 O         -5.0094376351       -2.1183714816        1.3630295855
 O         -4.2617384592       -3.1572969868       -0.7242995601
 C         -4.3608621081       -0.4942381563       -0.6271406645
 C         -5.0433395073        0.5310660821       -0.0051018854
 C         -5.1193477679        1.7627482486       -0.6352878093
 C         -4.5110535249        1.9475546742       -1.8668164070
 C         -3.8313392888        0.9062191770       -2.4799422114
 C         -3.7498315951       -0.3264491247       -1.8538629465
 H         -3.2310222120       -1.1589269924       -2.3022079955
 H         -3.3602357271        1.0501928292       -3.4392547155
 H         -4.5672682603        2.9088490850       -2.3529216920
 H         -5.6475439276        2.5745901910       -0.1619927716
 H         -5.5015997693        0.3446310693        0.9521074837
 H         -1.9596129140       -2.4347837881       -0.0115337273
 H         -3.5503933902       -0.6737579720        2.7115865455
 H         -2.7536251120        1.5425519858        3.5019999422
 H         -0.8563699638        2.6429241455        2.3796913753
 C          0.5668563976        1.7635156435        0.2408118333
 H          0.7459642345        2.7229532630        0.7437080021
 C          0.1939386537        2.0413857796       -1.2035920285
 C         -0.7624487838        3.1545045363       -1.5027236984
 C          0.6861343654        3.2933030477       -1.8618137562
 H          0.9692914597        3.2503007343       -2.9028688559
 H          1.2977145500        3.9611876626       -1.2723035614
 H         -1.4790464366        3.0159081166       -2.2968875066
 H         -1.1350653428        3.7299834955       -0.6691802335
 H          0.1372310667        1.1495574505       -1.8128815410
 O          1.4237116340       -0.6685116016       -1.2518236490
