  62
        -98.93027619
 C          2.4153166355        1.1363162302        0.6891397284
 C          2.2354940670        0.3334182993       -0.4623460482
 C          2.6652951538       -1.0770414737       -0.3602444874
 C          3.1443674740       -1.5358780206        0.8089588657
 C          3.6251153173       -2.9220708291        1.1547037209
 C          2.7285554656       -4.0826903459        0.6947067547
 C          3.3492120009       -4.9192297218       -0.4250201351
 H          4.4146166475       -5.0406235244       -0.2188429742
 H          2.8976822394       -5.9135630936       -0.4094962569
 C          3.1673638145       -4.3519042359       -1.8315999934
 H          3.7658535984       -4.9604973864       -2.5135778749
 H          2.1223851456       -4.4590676594       -2.1313500730
 C          3.5674166443       -2.8849922977       -2.0049104478
 H          4.4805802418       -2.6681912926       -1.4522143877
 H          3.7886668079       -2.7240117885       -3.0621511164
 C          2.4642503765       -1.8924783114       -1.6084877398
 H          2.3340581100       -1.1515626495       -2.4041451848
 H          1.5013536460       -2.4085298563       -1.5308668790
 H          1.7553625143       -3.7000084762        0.3873545285
 H          2.5608218119       -4.7364603297        1.5522102377
 H          4.6344132845       -3.0526192809        0.7576849403
 H          3.7134302560       -2.9289142510        2.2433956668
 O          3.2713279695       -0.7323759521        1.9045255186
 C          2.8992544558        0.5987458565        1.8825842232
 O          3.0322406440        1.1861496533        2.9751882858
 H         -0.1559688332        1.2064216783        1.4690336610
 C         -0.4025524867        1.8685425454        0.6457541944
 C          0.5878373754        2.6907308721        0.1216713812
 C          0.2593094050        3.5238241035       -0.9385356921
 C         -1.0200332081        3.5131285827       -1.4682319775
 C         -1.9949513231        2.6761357138       -0.9577148408
 C         -1.6771935688        1.8447952513        0.1069896451
 N         -2.6650038297        0.9660699941        0.6211326376
 S         -2.9734826797       -0.3962405963       -0.3355542580
 O         -2.1342100203       -1.4939626077        0.1036147864
 O         -2.8915678314       -0.0297863988       -1.7250898277
 C         -4.6701425495       -0.7277854915        0.0996273402
 C         -4.9780788671       -1.7743011090        0.9459157714
 C         -6.3032911996       -1.9880407046        1.2930245899
 C         -7.2909526611       -1.1529459089        0.7941247957
 C         -6.9654879929       -0.1044844301       -0.0538934417
 C         -5.6432392380        0.1128247962       -0.4050974946
 H         -5.3438847927        0.9092922264       -1.0658263435
 H         -7.7362463693        0.5424868413       -0.4406029172
 H         -8.3209182129       -1.3210274403        1.0665078173
 H         -6.5588790625       -2.8032808556        1.9507001057
 H         -4.1780610166       -2.4010334368        1.3059778049
 H         -2.4067407044        0.6237289018        1.5382569354
 H         -2.9832384608        2.6388475262       -1.3849452800
 H         -1.2561273571        4.1580653151       -2.3010929155
 H          1.0137340586        4.1579146911       -1.3746297546
 C          1.9658133178        2.5883326004        0.7294321526
 H          1.8785490756        2.8257067450        1.8031343239
 C          2.9647435716        3.5770966005        0.1492100809
 C          4.4323242472        3.2721558771        0.1386627290
 C          3.6708410621        3.3352446987       -1.1495023344
 H          3.8420741996        4.1780748241       -1.8031697137
 H          3.4558630997        2.4155109931       -1.6695040048
 H          5.1224503890        4.0693027446        0.3708016296
 H          4.7443649275        2.3040212645        0.5032655745
 H          2.6916767140        4.6038412436        0.3723537877
 O          1.7405497242        0.7589699764       -1.5385026995
