  62
        -98.94412325
 C         -2.2415289207       -0.8521581578        0.3832623376
 C         -2.4666166689       -0.0001805543       -0.7252003922
 C         -3.3328582944        1.1607806710       -0.4718528735
 C         -3.8092346424        1.3711390708        0.7687770291
 C         -4.7438844288        2.4808816312        1.1523485572
 C         -6.2090158687        2.0400105639        1.0263190422
 C         -6.5402261028        1.3711595006       -0.3078295858
 H         -5.9988612388        0.4247584290       -0.3760044422
 H         -7.6056415761        1.1314016635       -0.2949995380
 C         -6.2229871899        2.2260253768       -1.5427841440
 H         -7.0656584106        2.1669049097       -2.2347817378
 H         -6.1158811245        3.2716274340       -1.2518975013
 C         -4.9793112356        1.7853024782       -2.3171171643
 H         -5.0407879134        0.7151326902       -2.5298527698
 H         -4.9726063043        2.3097774234       -3.2762144260
 C         -3.6341207799        2.0640086071       -1.6345332499
 H         -3.5846707262        3.1121730423       -1.3326671719
 H         -2.8435489171        1.8789883381       -2.3677481872
 H         -6.4270624453        1.3308997945        1.8283433275
 H         -6.8456226858        2.9157470729        1.1650153189
 H         -4.5443714322        2.7562115231        2.1894550081
 H         -4.5567824393        3.3432108429        0.5154000703
 O         -3.5244071435        0.5597074571        1.8206255248
 C         -2.7456793237       -0.5741576833        1.6527125031
 O         -2.5672509413       -1.2359601361        2.6968135771
 O         -1.9723006698       -0.1971425787       -1.8648825816
 C         -1.3932257695       -2.0990363980        0.2158160454
 C          0.0018403916       -1.7356557417       -0.2345255804
 C          0.6923238122       -2.4380438748       -1.2133372117
 C          1.9810272258       -2.0716691975       -1.5619144370
 C          2.6083703093       -1.0049492010       -0.9459262148
 C          1.9318201735       -0.3023873962        0.0428806073
 C          0.6438596718       -0.6753483925        0.3936409271
 H          0.1203472525       -0.1291657007        1.1701331102
 N          2.5606894236        0.7894962252        0.6711758958
 S          4.0538550009        0.5111981383        1.3920318103
 O          4.1741054258       -0.8559219335        1.8442543817
 O          4.1830759373        1.5369223254        2.4042322925
 C          5.2256984505        0.8284360826        0.0899935383
 C          5.2014984146        2.0669317506       -0.5208694074
 C          6.1110699667        2.3313440840       -1.5322940786
 C          7.0258021997        1.3598604492       -1.9111303272
 C          7.0398554655        0.1229794581       -1.2848492659
 C          6.1318201370       -0.1486202451       -0.2731548018
 H          6.1004949584       -1.0973436610        0.2383134247
 H          7.7521160920       -0.6304700140       -1.5803414194
 H          7.7322792983        1.5684996327       -2.6989249837
 H          6.1031767647        3.2920082036       -2.0215955787
 H          4.4771554286        2.7943625855       -0.1942188543
 H          1.9559981554        1.2865414648        1.3094412548
 H          3.6085034063       -0.7122576624       -1.2205441578
 H          2.5030468168       -2.6236939898       -2.3283732708
 H          0.2205233763       -3.2721614341       -1.7059745851
 H         -1.3136348429       -2.5490705324        1.2171176653
 C         -2.0891788071       -3.0802573243       -0.7051759983
 C         -1.8966011418       -4.5552371994       -0.5261209729
 C         -3.2017125428       -3.9194800166       -0.1550525509
 H         -4.0643988109       -4.1062030810       -0.7768247916
 H         -3.4368191080       -3.8040231886        0.8934927023
 H         -1.8664115796       -5.1822043335       -1.4044568513
 H         -1.2483880831       -4.8820525558        0.2730697607
 H         -2.2035382068       -2.6947117394       -1.7116742243
