  62
        -98.93998061
 C         -1.0109479501       -1.1931301499       -0.5398190888
 C         -2.0831037303       -1.3686535487        0.3684545112
 C         -2.9315364200       -0.1984868282        0.6603226300
 C         -2.6251522795        0.9772235412        0.0822555890
 C         -3.3475252991        2.2928392716        0.2036576277
 C         -4.6466380289        2.3353350713       -0.6181575525
 C         -5.5040262193        1.0753743416       -0.5322632316
 H         -6.3249479192        1.1831127713       -1.2460220918
 H         -4.9099985496        0.2157893012       -0.8477529107
 C         -6.1126959797        0.7948739530        0.8394107886
 H         -6.7578767600       -0.0812754269        0.7360420792
 H         -6.7424048995        1.6383354935        1.1314274777
 C         -5.1178483700        0.5202363037        1.9688907090
 H         -5.6855630403        0.1144867746        2.8115711592
 H         -4.6601472797        1.4407726438        2.3215709782
 C         -4.0405668803       -0.5079707970        1.6367704101
 H         -3.5379450105       -0.7989275663        2.5678048804
 H         -4.5189386405       -1.4236956971        1.2702110008
 H         -5.2306750187        3.1990017817       -0.2959202634
 H         -4.3764747187        2.4814635703       -1.6666398226
 H         -3.5388878592        2.5153239725        1.2495315475
 H         -2.6697715488        3.0597618610       -0.1779278828
 O         -1.5759902593        1.1081830501       -0.7745620009
 C         -0.7439471396        0.0530445896       -1.1061044898
 O          0.1634374907        0.3698998186       -1.9000784400
 O         -2.3387367008       -2.4780205781        0.9141817421
 C         -0.1352393104       -2.4057480404       -0.8006933276
 C          1.0503313094       -2.4186431699        0.1364238927
 C          1.4098417889       -3.5719734495        0.8242191337
 C          2.4822064587       -3.5641892990        1.6984530039
 C          3.1958738291       -2.4011572591        1.9269383230
 C          2.8426163496       -1.2433651596        1.2442971319
 C          1.7977119697       -1.2673812800        0.3338926618
 H          1.5483721901       -0.3655953004       -0.2007908591
 N          3.5202460199       -0.0324204296        1.4529264710
 S          2.6222801704        1.3838210808        1.5171434596
 O          3.4345276005        2.2834929112        2.3140875090
 O          1.2861776502        1.1460086116        2.0159898296
 C          2.5827026109        2.0038669193       -0.1484995810
 C          3.6524962710        1.7679537882       -0.9879036406
 C          3.6292220514        2.3063505771       -2.2638893110
 C          2.5485794217        3.0722172371       -2.6727448119
 C          1.4856829716        3.3036187782       -1.8153266523
 C          1.5009389912        2.7651760893       -0.5394628618
 H          0.6834376811        2.9018619502        0.1517108179
 H          0.6384275219        3.8876376582       -2.1374314330
 H          2.5295034720        3.4856251762       -3.6689663023
 H          4.4509401514        2.1226179062       -2.9376050507
 H          4.4717887207        1.1609948283       -0.6396001099
 H          4.2279321698       -0.0555282392        2.1732385311
 H          4.0129797490       -2.3848604987        2.6320436232
 H          2.7519090483       -4.4666805887        2.2255961448
 H          0.8316049086       -4.4733388994        0.6853637944
 H         -0.7601794508       -3.2761623100       -0.5565313169
 C          0.3321730898       -2.5355909918       -2.2373774874
 C          0.6886760194       -3.8891062924       -2.7716451861
 C         -0.5565663703       -3.2011743724       -3.2430885169
 H         -0.5837906500       -2.8041813933       -4.2464526773
 H         -1.5087882904       -3.5762286818       -2.8966857768
 H          1.5214700995       -3.9685286132       -3.4529856659
 H          0.5785600790       -4.7355564418       -2.1111700254
 H          0.9170501601       -1.6889125223       -2.5719393780
