  62
        -98.94248851
 C         -0.8045141985       -1.3091566299        0.6866174307
 C         -1.3438275792       -1.0237051200       -0.5887637490
 C         -2.1776743296        0.1893940697       -0.6965138685
 C         -2.3964280894        0.9262830495        0.4079451716
 C         -3.2515644198        2.1586427492        0.5297913521
 C         -4.7577440597        1.8352253087        0.5471258527
 C         -5.1969742597        0.7201296186       -0.3999560672
 H         -6.2361238395        0.4745008682       -0.1657098068
 H         -4.6011777893       -0.1732555712       -0.2034100476
 C         -5.1243674904        1.0592655788       -1.8869902072
 H         -5.8223109508        1.8720026186       -2.1022037969
 H         -5.4573240304        0.1786959088       -2.4422145472
 C         -3.7469514608        1.4654221293       -2.4109581578
 H         -3.4835311110        2.4613564294       -2.0642384178
 H         -3.8153424413        1.5266160094       -3.5014747177
 C         -2.6202715203        0.4804147397       -2.1083260383
 H         -1.7132750407        0.8155390701       -2.6300848787
 H         -2.8687313702       -0.4928543403       -2.5466726983
 H         -5.3112284901        2.7474467285        0.3195359130
 H         -5.0197544292        1.5247186485        1.5611027728
 H         -3.0064453804        2.8523450394       -0.2702695679
 H         -2.9899129396        2.6374359592        1.4758503220
 O         -1.8800196688        0.5950308696        1.6261592814
 C         -1.0439299184       -0.4936051001        1.7897195309
 O         -0.5871445478       -0.6286232601        2.9430267307
 O         -1.1458961593       -1.7518783298       -1.5970894692
 C          0.1409938619       -2.4838280996        0.8589546602
 C          1.2971895015       -2.3370852991       -0.1014396403
 C          1.8410922916       -3.3940386589       -0.8193750806
 C          2.8830196111       -3.1737040884       -1.7040462910
 C          3.3909752806       -1.9030637882       -1.9031255711
 C          2.8620931305       -0.8407904485       -1.1786235408
 C          1.8456317510       -1.0719529189       -0.2680814204
 H          1.4402913309       -0.2441774991        0.2953213499
 N          3.3513140900        0.4654533217       -1.3326898808
 S          2.2925588496        1.7589449613       -1.2435074802
 O          0.9991490295        1.4490377109       -1.8056874397
 O          3.0107284489        2.8461317616       -1.8776423204
 C          2.1535887102        2.1030538011        0.4966654798
 C          3.2992821305        2.1251699514        1.2668023094
 C          3.1879471610        2.4039509712        2.6194132294
 C          1.9425156311        2.6568354108        3.1744911900
 C          0.8029458108        2.6394820104        2.3857592605
 C          0.9082635703        2.3626542306        1.0324223604
 H          0.0452086801        2.3202474304        0.3848579207
 H         -0.1676320591        2.8215415601        2.8188094609
 H          1.8553061815        2.8644179806        4.2292494201
 H          4.0704944812        2.4181277015        3.2385030791
 H          4.2483099304        1.9187162118        0.8009180190
 H          4.0332906597        0.5850068620       -2.0676453411
 H          4.1842590002       -1.7301084779       -2.6143383114
 H          3.2934846612       -4.0020227182       -2.2615351913
 H          1.4415838120       -4.3874960690       -0.6971336505
 H          0.5323368323       -2.4128445996        1.8848083801
 C         -0.6031096977       -3.7946546699        0.7096983304
 C         -0.1508929269       -5.0121233298        1.4574645701
 C         -1.4060856770       -4.3041540203        1.8675083607
 H         -2.3563503569       -4.7764265106        1.6684632810
 H         -1.3919293868       -3.7168301704        2.7742475707
 H         -0.2420348568       -5.9751415898        0.9779589400
 H          0.7147586033       -4.9150602196        2.0949916797
 H         -1.0168589880       -3.9247889199       -0.2838281695
