  62
        -98.94340500
 C         -1.9415972999       -0.7921747351        0.5299257075
 C         -2.1938855360       -0.1689487154       -0.7153920141
 C         -2.5516956380        1.2548855916       -0.6567042533
 C         -2.5643514457        1.8828696837        0.5331124869
 C         -2.9510090157        3.3182489624        0.7409658968
 C         -4.4529761091        3.4542673735        1.0287769818
 C         -5.3415693280        2.7008690191        0.0389737206
 H         -5.1687043105        1.6281808271        0.1517871619
 H         -6.3786467412        2.8916728358        0.3230798522
 C         -5.1319029248        3.0958308536       -1.4294623101
 H         -4.6195823224        4.0568782339       -1.4845918017
 H         -6.1087562765        3.2204695185       -1.9012128405
 C         -4.3647661324        2.0652237159       -2.2599171290
 H         -4.4610237369        2.3381954925       -3.3140402439
 H         -4.8206803263        1.0802213084       -2.1332958648
 C         -2.8661234543        1.9434332227       -1.9551552824
 H         -2.4154041971        1.3235877752       -2.7359496208
 H         -2.4000409082        2.9303654680       -1.9897265223
 H         -4.7109303841        4.5147929303        1.0192593554
 H         -4.6489369704        3.0651546822        2.0306024134
 H         -2.6853097104        3.8908206992       -0.1455679797
 H         -2.3875259785        3.7042399311        1.5923040162
 O         -2.2709990500        1.2607950770        1.7047472398
 C         -1.9564169320       -0.0876182362        1.7320262446
 O         -1.7169173096       -0.5383222853        2.8728455075
 O         -2.1269770805       -0.7707128175       -1.8195393366
 C         -1.5644288909       -2.2603461185        0.5740389453
 C         -0.3117302688       -2.5081161348       -0.2331591854
 C         -0.1172024885       -3.6543674776       -0.9936231040
 C          1.0653890386       -3.8401145028       -1.6885912605
 C          2.0746605914       -2.8972901331       -1.6376555767
 C          1.8876418287       -1.7431566627       -0.8833225289
 C          0.7063981485       -1.5646331478       -0.1830338001
 H          0.5760912978       -0.6697932862        0.4095083925
 N          2.8746972929       -0.7444811891       -0.8504382909
 S          2.9712061671        0.2960134950        0.4699197073
 O          2.9654444461       -0.4580079563        1.7044644283
 O          1.9652363393        1.3209038577        0.3352265769
 C          4.5871534023        0.9970691745        0.1914907102
 C          4.7153010259        2.0368737675       -0.7099672596
 C          5.9748798469        2.5611538284       -0.9534665064
 C          7.0794341123        2.0394841153       -0.2963227712
 C          6.9352223292        0.9974271659        0.6072249630
 C          5.6783447053        0.4679333253        0.8546404037
 H          5.5156046448       -0.3353911776        1.5550481526
 H          7.7948011601        0.5962037896        1.1193458667
 H          8.0583503373        2.4497576035       -0.4874726408
 H          6.0898921180        3.3732185897       -1.6530863309
 H          3.8266484242        2.4139176060       -1.1890590106
 H          3.7836468330       -1.0689023833       -1.1501027855
 H          2.9946845250       -3.0431034150       -2.1824959607
 H          1.2037206508       -4.7349282054       -2.2762600648
 H         -0.8924103019       -4.4014135540       -1.0429121199
 H         -1.3327018147       -2.4827826019        1.6273494931
 C         -2.7371707421       -3.1165009068        0.1393107637
 C         -2.9510776010       -4.4737326656        0.7370201453
 C         -3.8610768699       -3.3415252057        1.1042376056
 H         -4.8727148858       -3.3458170771        0.7272183109
 H         -3.7626726365       -2.9013457880        2.0864137847
 H         -3.3427497628       -5.2585244080        0.1075680764
 H         -2.2424020620       -4.8114140722        1.4782867042
 H         -2.9939060070       -2.9662323246       -0.9030044665
