  62
        -98.94022077
 C         -1.8186721200       -0.7830673785       -0.8473437108
 C         -2.0763323201       -0.3463040497        0.4756879696
 C         -3.4965585601       -0.2566342199        0.8532789696
 C         -4.4432682001       -0.6255870790       -0.0275360308
 C         -5.9222119001       -0.5339607091        0.2098067391
 C         -6.4787895699        0.8153625913       -0.2657408397
 C         -5.6863190199        2.0221593508        0.2368338614
 H         -4.6893820998        2.0052068711       -0.2093892985
 H         -6.1887895598        2.9180391612       -0.1342318678
 C         -5.5552116500        2.1045057895        1.7640998815
 H         -5.7518055599        3.1320690392        2.0771398224
 H         -6.3092910500        1.4729870591        2.2352501909
 C         -4.1728739500        1.7313348489        2.3030542913
 H         -4.1255680601        2.0309246579        3.3533458715
 H         -3.4065019699        2.2967422293        1.7670225418
 C         -3.8099696002        0.2424151389        2.2358028200
 H         -2.8968559302        0.0947878683        2.8200374999
 H         -4.6068109502       -0.3512316715        2.6884936494
 H         -6.4676119099        0.8287536923       -1.3581682897
 H         -7.5162929199        0.8958379511        0.0636994303
 H         -6.4100090701       -1.3352352086       -0.3479623316
 H         -6.1237851402       -0.6686608501        1.2707543390
 O         -4.1549164500       -1.0921725480       -1.2697934512
 C         -2.8442161500       -1.1816889377       -1.7084459712
 O         -2.7217193300       -1.6355189267       -2.8639359416
 H          2.0115246100       -0.1076380394       -0.2857250499
 C          1.6772817999       -1.0639940397        0.0781643792
 C          0.4759883199       -1.5995475092       -0.3557184014
 C          0.0723473197       -2.8299215896        0.1585989575
 C          0.8402505496       -3.4913154305        1.0955794870
 C          2.0451942996       -2.9563870210        1.5185800175
 C          2.4642136798       -1.7383876606        1.0018167486
 N          3.6799799398       -1.1601765510        1.4011729892
 S          4.6844363599       -0.5154001601        0.2271487499
 O          4.5606805599       -1.2269788689       -1.0242573908
 O          6.0009792099       -0.5152871607        0.8295839700
 C          4.1477683001        1.1701112402        0.0292166613
 C          3.9903034502        1.6832848313       -1.2430112782
 C          3.6127774703        3.0088173215       -1.3899821771
 C          3.4017223703        3.7940725005       -0.2667709464
 C          3.5648435902        3.2632750094        1.0039605832
 C          3.9448610801        1.9396674992        1.1574351920
 H          4.0820246400        1.4941455483        2.1284223416
 H          3.3961783702        3.8768073286        1.8742191637
 H          3.1054912104        4.8247381806       -0.3834276655
 H          3.4831217404        3.4221150224       -2.3777531367
 H          4.1562325602        1.0340259721       -2.0881494188
 H          4.2012328197       -1.6967245217        2.0794541488
 H          2.6515798095       -3.4759543017        2.2452479371
 H          0.5054344695       -4.4374981808        1.4941265161
 H         -0.8640240403       -3.2544785392       -0.1791933129
 C         -0.4018379800       -0.9185873382       -1.3773450608
 H         -0.4865551500       -1.5979467374       -2.2425972114
 C          0.1900752701        0.3812882922       -1.9033898496
 C         -0.6889762797        1.4869513727       -2.4048200887
 C          0.0906714502        1.6659356816       -1.1386656585
 H          0.9394936303        2.3340057015       -1.1472277578
 H         -0.4364433899        1.6418478508       -0.1985560885
 H         -0.3767880296        2.0278255035       -3.2854276682
 H         -1.7581826297        1.3464788028       -2.3364849589
 H          1.1091167202        0.2117143826       -2.4571861697
 O         -1.1811127501       -0.0450697905        1.3057498199
