  62
        -98.93906909
 C         -1.0015278771       -1.5345803769       -0.6129043882
 C         -2.2385831699       -1.8030146712        0.0264147170
 C         -3.2929735723       -0.7827824297       -0.0972358480
 C         -3.0334960228        0.3348504972       -0.7974926679
 C         -3.9280059175        1.5285935890       -0.9883303652
 C         -3.6564021763        2.5869882848        0.0943695295
 C         -4.4654304966        2.4201418735        1.3796623592
 H         -5.5132159801        2.6542163112        1.1798140945
 H         -4.0962494223        3.1585553517        2.0949463226
 C         -4.3877973246        1.0332313237        2.0223308937
 H         -4.6709682307        1.1323576238        3.0720677167
 H         -3.3575912496        0.6729237125        1.9980523792
 C         -5.3137375078        0.0069529133        1.3531800126
 H         -6.0063050562        0.5271099953        0.6917721931
 H         -5.9236915687       -0.4828333711        2.1153371075
 C         -4.5976808782       -1.1079234273        0.5784474952
 H         -5.2834817654       -1.5185312602       -0.1706611480
 H         -4.3578174318       -1.9284824228        1.2620168431
 H         -3.8793705514        3.5733183063       -0.3170515567
 H         -2.5896046232        2.5563054570        0.3260890403
 H         -4.9723610550        1.2308862140       -0.9972991419
 H         -3.6750949506        1.9522782159       -1.9621619727
 O         -1.8389635311        0.5485398457       -1.4110890530
 C         -0.8013602350       -0.3671654192       -1.3499621553
 O          0.2073764018       -0.0138820486       -1.9907712766
 O         -2.4542160312       -2.8608685842        0.6786162303
 C          0.0856111139       -2.5828225893       -0.4512724633
 C          1.0417546199       -2.2104952907        0.6574775176
 C          1.2323739273       -3.0563655856        1.7436971334
 C          2.1169194816       -2.7167920355        2.7520071548
 C          2.8275672740       -1.5324301483        2.6930198415
 C          2.6374649510       -0.6739765379        1.6142579452
 C          1.7476249575       -1.0159770414        0.6067148935
 H          1.6122293253       -0.3506879697       -0.2306299162
 N          3.3069534857        0.5525216383        1.5609767542
 S          3.6053576628        1.3628055017        0.1329755532
 O          3.9963471670        0.4637078855       -0.9271927684
 O          4.5988433838        2.3516721364        0.5045575466
 C          2.0927120619        2.2150094809       -0.2521511181
 C          1.7784466605        2.4516499212       -1.5739836635
 C          0.6404333097        3.1836605929       -1.8720006712
 C         -0.1579720128        3.6649129242       -0.8480572436
 C          0.1714521565        3.4176416986        0.4761348395
 C          1.3086129942        2.6882344929        0.7809896380
 H          1.5900295499        2.4748473354        1.7991968305
 H         -0.4540048555        3.7913382544        1.2719126782
 H         -1.0453019953        4.2314141243       -1.0838804402
 H          0.3768928948        3.3632696067       -2.9018745330
 H          2.4143283521        2.0438788617       -2.3431407796
 H          4.0243001952        0.6992751664        2.2546699658
 H          3.5204557541       -1.2666249739        3.4765990700
 H          2.2572504870       -3.3819340677        3.5904441848
 H          0.6732798994       -3.9787451787        1.7991386699
 H         -0.4408947632       -3.4977118971       -0.1462442818
 C          0.8546740419       -2.8775398573       -1.7240949732
 C          1.4864099737       -4.2253257912       -1.8948132889
 C          0.2900900416       -3.8481397359       -2.7153189173
 H          0.4242558625       -3.6457533380       -3.7672401736
 H         -0.6571589899       -4.3099609474       -2.4768556163
 H          2.4479496872       -4.2828945706       -2.3816595147
 H          1.3498498495       -4.9477884591       -1.1043096238
 H          1.3888159384       -2.0203438023       -2.1138307755
