  62
        -98.93595793
 C          2.5288100594        0.2471083478        0.5892713030
 C          2.2348573327       -0.3926892757       -0.6396624359
 C          2.0175125261       -1.8510782738       -0.5870781310
 C          2.0223087438       -2.4789784340        0.5999480374
 C          1.8558164265       -3.9474913756        0.9077618644
 C          0.8383751595       -4.7467930809        0.0871053339
 C         -0.4438465930       -3.9849686796       -0.2786133380
 H         -1.3089103361       -4.5813429390        0.0183428342
 H         -0.4971549326       -3.0403334586        0.2675657688
 C         -0.5565564956       -3.6944125151       -1.7763546983
 H         -1.6050256105       -3.5051032841       -2.0172234889
 H         -0.2415393665       -4.5776558220       -2.3373820553
 C          0.2413038124       -2.4807718743       -2.2473869073
 H          0.1293950058       -2.3974166976       -3.3314648903
 H         -0.1837479481       -1.5765108780       -1.8038613579
 C          1.7408599085       -2.5117633579       -1.9075953003
 H          2.1319364655       -3.5264994015       -1.9373934310
 H          2.2675776374       -1.9140736146       -2.6567539694
 H          0.5826424479       -5.6267612675        0.6803663798
 H          1.3103749151       -5.1093620029       -0.8249757045
 H          2.8380765640       -4.4225263293        0.8190074811
 H          1.5787363210       -3.9824551319        1.9647380110
 O          2.2406340122       -1.8102914000        1.7706274856
 C          2.4848839079       -0.4497703748        1.7964899570
 O          2.6473392266        0.0174801643        2.9440421453
 H          0.1589700875        1.3910869070        1.1184661137
 C          0.3107299007        2.0800097091        0.2980983540
 C          1.6050138911        2.4225336034       -0.0737511603
 C          1.7819542724        3.3169873948       -1.1197025800
 C          0.6836698501        3.8257272848       -1.7923780015
 C         -0.6002572576        3.4417494830       -1.4530709469
 C         -0.7865754335        2.5559501709       -0.3967861587
 N         -2.0740032479        2.1421376098       -0.0093882497
 S         -2.2339834357        0.5743308438        0.6025455799
 O         -1.9654953142        0.6071315440        2.0205511928
 O         -1.4580152343       -0.3596828713       -0.1776778702
 C         -3.9766977998        0.3026648307        0.3390408277
 C         -4.8772027021        0.9369848770        1.1743173630
 C         -6.2337309317        0.7530881156        0.9593276210
 C         -6.6647365794       -0.0578266229       -0.0804538087
 C         -5.7492714247       -0.6897093204       -0.9084059566
 C         -4.3907307865       -0.5079481793       -0.7003777096
 H         -3.6404218300       -0.9809095699       -1.3138293892
 H         -6.0867257055       -1.3223890796       -1.7133795358
 H         -7.7210533466       -0.2004542589       -0.2447870357
 H         -6.9482935026        1.2406911685        1.6025634341
 H         -4.4942024683        1.5481079664        1.9749067506
 H         -2.7775454639        2.3439402504       -0.7069768376
 H         -1.4515061980        3.8163641978       -2.0009741338
 H          0.8324316116        4.5138316635       -2.6108314534
 H          2.7773157824        3.5897003774       -1.4298562955
 C          2.7265202104        1.7526781476        0.6814056418
 H          2.5936585351        1.9855257051        1.7519225735
 C          4.1123630447        2.2476867591        0.3002919902
 C          5.3110377744        1.3589165282        0.4442695619
 C          4.8386563859        1.7652944720       -0.9176816905
 H          5.4333353094        2.4775154858       -1.4710725081
 H          4.3445155011        1.0323856556       -1.5344246690
 H          6.2257083187        1.7879516582        0.8251445970
 H          5.1386515031        0.3408769915        0.7635831296
 H          4.2543242325        3.2897871136        0.5708307700
 O          2.1788580906        0.2063576772       -1.7441078539
