  62
        -98.93438862
 C         -2.0807932310       -1.2298505778        0.6620464276
 C         -2.7629125120       -0.9802211133       -0.5553880031
 C         -4.0255409075       -0.2311252725       -0.4372840294
 C         -4.4580627658        0.1597342235        0.7739819201
 C         -5.6934376237        0.9736551204        1.0258791994
 C         -5.3765263321        2.4757434631        1.0291259404
 C         -4.5500845494        2.9360540020       -0.1720340645
 H         -4.4147513750        4.0159439128       -0.0787047485
 H         -3.5567363646        2.4838654539       -0.1177020568
 C         -5.1781644772        2.6155689522       -1.5356604249
 H         -6.2414485823        2.4059069372       -1.4132474205
 H         -5.0930040886        3.4968432978       -2.1749783244
 C         -4.5156351292        1.4570575892       -2.2837042644
 H         -3.4352309649        1.6183135722       -2.3259657442
 H         -4.8870904787        1.4608308190       -3.3118947320
 C         -4.7721841735        0.0582712911       -1.7088957671
 H         -5.8446324130       -0.0921156996       -1.5703852048
 H         -4.4129484628       -0.6714438408       -2.4402095052
 H         -6.3178898212        3.0274936443        1.0578722758
 H         -4.8176716886        2.7101669596        1.9382474656
 H         -6.4330118602        0.7493540685        0.2598163660
 H         -6.0968953284        0.6946376280        2.0007877589
 O         -3.7782142417       -0.1023039968        1.9199896498
 C         -2.5710155873       -0.7771246248        1.8890462020
 O         -2.0341413203       -0.9129006099        3.0090361102
 H          0.5680593174        0.1286651928        1.5485218136
 C          0.8257607009       -0.0727805814        0.5158093008
 C          0.2484374029       -1.1698816798       -0.1197377888
 C          0.5805703955       -1.3966171263       -1.4494079650
 C          1.4545393804       -0.5497695922       -2.1118216724
 C          2.0153885757        0.5417132034       -1.4768205911
 C          1.6904836882        0.7833135856       -0.1478016656
 N          2.2500638771        1.8881079232        0.5151429298
 S          3.8769427435        2.2029210723        0.2873943237
 O          4.3036426701        2.8802514052        1.4918783518
 O          4.0627700990        2.9326381262       -0.9422789495
 C          4.6534116238        0.6012846503        0.1597877826
 C          4.5029779231       -0.2825375581        1.2101558260
 C          5.0733644438       -1.5411858480        1.1136101977
 C          5.7826491134       -1.8922758633       -0.0250729951
 C          5.9311217886       -0.9911786998       -1.0676610169
 C          5.3594297513        0.2680139524       -0.9779873254
 H          5.4452553209        0.9976336828       -1.7667707548
 H          6.4853916992       -1.2657489102       -1.9505945722
 H          6.2222889554       -2.8743969468       -0.0981825640
 H          4.9587395930       -2.2434192926        1.9236854676
 H          3.9499085450        0.0212696784        2.0846491244
 H          1.9875402899        1.9650572402        1.4863538268
 H          2.6792758372        1.2183964051       -1.9899096352
 H          1.6929135254       -0.7410751273       -3.1469829845
 H          0.1345057853       -2.2084889083       -1.9935693069
 C         -0.7398646428       -1.9569205975        0.7058964913
 H         -0.4138463208       -1.8541341744        1.7525725044
 C         -0.9041232190       -3.4561718975        0.4984247398
 C         -1.2274834650       -4.1436014065       -0.7923559217
 C          0.1199529446       -4.3295303373       -0.1620070237
 H          0.3404065401       -5.2841590112        0.2922098628
 H          0.9731413469       -3.8520734131       -0.6167257014
 H         -1.3340811949       -3.5445265174       -1.6809073832
 H         -1.9275773354       -4.9664552576       -0.7502396548
 H         -1.3936364955       -3.8801919119        1.3728170812
 O         -2.3572808524       -1.3499900724       -1.6840464067
