  62
        -98.94113936
 C          2.2263271959        1.0121008552        0.5887293798
 C          2.0681737378       -0.2329226812       -0.0663536105
 C          3.1840372073       -1.1755017888        0.0871710652
 C          4.2539356615       -0.8329725678        0.8280041236
 C          5.4586463103       -1.6939788053        1.0953631927
 C          6.5192258756       -1.6447063184       -0.0129743297
 C          6.1457979198       -2.3755302315       -1.3032287020
 H          7.0540076045       -2.4479464512       -1.9048153796
 H          5.8307619783       -3.3921002530       -1.0659442731
 C          5.0590178385       -1.6788208650       -2.1339961869
 H          5.3597071636       -1.6586244425       -3.1840212898
 H          4.9615424010       -0.6399974493       -1.8099551242
 C          3.6855543178       -2.3472123632       -2.0699055452
 H          2.9863222090       -1.7527227316       -2.6639739555
 H          3.7414513956       -3.3431589488       -2.5150823829
 C          3.1109157806       -2.4767273985       -0.6531268688
 H          2.0564524917       -2.7519305496       -0.7354228420
 H          3.6359550659       -3.2583811243       -0.1044891846
 H          6.7415542687       -0.5990570137       -0.2378771826
 H          7.4288071251       -2.0992903148        0.3861875057
 H          5.1441525267       -2.7258040962        1.2536762184
 H          5.9081309548       -1.3210055071        2.0181117442
 O          4.3566807769        0.3685317154        1.4567214203
 C          3.3603446070        1.3235060085        1.3383844013
 O          3.5910161539        2.3883348388        1.9466032757
 O          1.0496125019       -0.5446273446       -0.7370241903
 C          1.1493033614        2.0729778338        0.4633672042
 C         -0.1962310811        1.5251616419        0.8715519117
 C         -0.2956560124        0.7304739612        2.0105358381
 C         -1.5127980167        0.2179859377        2.4155249547
 C         -2.6643377443        0.4917658917        1.6971097610
 C         -2.5793319248        1.2906756370        0.5663664524
 C         -1.3553792531        1.8066927858        0.1637339738
 H         -1.3143598530        2.4225880117       -0.7218083902
 N         -3.7653328571        1.5670872069       -0.1642894133
 S         -4.1885747249        0.3626747331       -1.2687588093
 O         -3.0705040891        0.0092528930       -2.1161249251
 O         -5.3555376757        0.8727391616       -1.9557714034
 C         -4.6388527342       -1.0107421793       -0.2366019282
 C         -3.7139209930       -2.0103300047       -0.0078303674
 C         -4.0647007118       -3.0657684483        0.8194345324
 C         -5.3243003723       -3.1007279021        1.3987756568
 C         -6.2413622536       -2.0885533305        1.1567668349
 C         -5.8977460054       -1.0298108577        0.3314524976
 H         -6.5772879078       -0.2236813973        0.1096929653
 H         -7.2196153249       -2.1212276140        1.6086588010
 H         -5.5920943072       -3.9236471464        2.0426496432
 H         -3.3521553526       -3.8523236339        1.0097653395
 H         -2.7441234888       -1.9398027450       -0.4753762259
 H         -3.7044222837        2.4369734437       -0.6783554084
 H         -3.6198387445        0.1063838434        2.0127167783
 H         -1.5675503966       -0.3984012570        3.2997601465
 H          0.6031485627        0.5133949174        2.5720449495
 H          1.4226388858        2.8711682392        1.1698119517
 C          1.1617065054        2.6440295636       -0.9410657963
 C          0.7979223299        4.0775630163       -1.1838649488
 C          2.2240610131        3.6345052989       -1.3076969999
 H          2.6653031339        3.5785419240       -2.2915967272
 H          2.9194377721        3.9206127333       -0.5319057423
 H          0.2610510559        4.3280648704       -2.0870810758
 H          0.5281987303        4.6781680658       -0.3281368677
 H          0.8810611586        1.9102988537       -1.6897879025
