  62
        -98.94122500
 C          2.2319529940        0.9340331429       -0.0571618045
 C          2.9388426992        0.3953624314        1.0501556141
 C          3.7799768731       -0.7781414188        0.7856837435
 C          3.8117512867       -1.2937866812       -0.4561830748
 C          4.6617736973       -2.4541699944       -0.8838938990
 C          6.0259142829       -1.9816345151       -1.4061531015
 C          6.7322248122       -0.9910904368       -0.4804819817
 H          7.6955991322       -0.7513503287       -0.9355605585
 H          6.1546241585       -0.0646367609       -0.4431371518
 C          6.9552690591       -1.5057451523        0.9484331826
 H          6.8579111108       -2.5917307075        0.9704355154
 H          7.9764070672       -1.2654618026        1.2516295417
 C          6.0238760628       -0.8928652389        1.9959975245
 H          6.0471503365        0.1967152071        1.9146714317
 H          6.4060780409       -1.1553814191        2.9859668711
 C          4.5602726257       -1.3485447263        1.9364175401
 H          4.5137204997       -2.4395701733        1.9289843821
 H          4.0623343627       -0.9899933579        2.8420366343
 H          6.6593849046       -2.8576023268       -1.5567806610
 H          5.8769509428       -1.4990808923       -2.3748986777
 H          4.7968152311       -3.1278469700       -0.0398024518
 H          4.1407233156       -2.9867097489       -1.6815035377
 O          3.0962450981       -0.7762229507       -1.4849284599
 C          2.2949602292        0.3482388672       -1.3215814327
 O          1.7134031746        0.6957138357       -2.3673717980
 H         -0.2825860381        0.7053072609       -1.3175905232
 C         -0.7566940132        1.0213015102       -0.3995885537
 C         -0.0386205741        1.7942476007        0.5033392981
 C         -0.6588003425        2.1836489430        1.6842185551
 C         -1.9657116778        1.8114947476        1.9486734248
 C         -2.6798648367        1.0486984297        1.0422165343
 C         -2.0663635456        0.6479280622       -0.1376748079
 N         -2.7841619317       -0.1246559928       -1.0705525071
 S         -3.4782217922       -1.5499089483       -0.5111668056
 O         -2.7509751893       -2.0832641768        0.6183414042
 O         -3.5849488445       -2.4066152928       -1.6719566619
 C         -5.1119489656       -1.0503600905       -0.0084252965
 C         -5.5359391053       -1.2766292872        1.2863483722
 C         -6.8134080443       -0.8804928905        1.6515056694
 C         -7.6392199768       -0.2693016354        0.7204794705
 C         -7.1990310910       -0.0518704760       -0.5768421903
 C         -5.9238445073       -0.4464222099       -0.9486729146
 H         -5.5439659345       -0.3005708216       -1.9460900285
 H         -7.8440400689        0.4234521487       -1.2981734503
 H         -8.6321284210        0.0389736938        1.0075582186
 H         -7.1575192597       -1.0492557314        2.6592324192
 H         -4.8563165397       -1.7502486822        1.9769233765
 H         -2.2620758992       -0.3016404108       -1.9176707149
 H         -3.6975222974        0.7556727900        1.2423322362
 H         -2.4339676264        2.1187120606        2.8712022323
 H         -0.1033284522        2.7664628406        2.4042620483
 C          1.3915929480        2.1713044992        0.2130620779
 H          1.8138667616        2.5917321784        1.1393559022
 C          1.5276591370        3.2336307739       -0.8701831227
 C          0.4081200337        3.6625988702       -1.7663100535
 C          0.8858530407        4.5765804132       -0.6808749151
 H          1.4428840719        5.4607394630       -0.9509155557
 H          0.2472806906        4.7000797549        0.1808810522
 H         -0.5546827393        3.1914638995       -1.6480141830
 H          0.6534967958        3.8956668189       -2.7913175376
 H          2.5171450794        3.2276967022       -1.3165460810
 O          2.8743640725        0.8858014180        2.2090116925
