  62
        -98.94466266
 C          1.7224435541       -0.3900217240       -0.2161700738
 C          2.8528543166       -0.3611975304       -1.0771516601
 C          3.9561846489        0.5182665758       -0.6800969064
 C          3.8456986066        1.2598747935        0.4364465708
 C          4.8715989496        2.2234525050        0.9678068499
 C          5.9705167558        1.5622059110        1.8110402340
 C          6.9878254309        0.7370386207        1.0219307419
 H          7.3876615251        1.3395069292        0.2056210530
 H          7.8153168031        0.5165118179        1.6992279554
 C          6.4379879749       -0.5848778432        0.4679964860
 H          5.5104160639       -0.8390491971        0.9860577741
 H          7.1487826789       -1.3887537949        0.6722331586
 C          6.1781194949       -0.5822498192       -1.0385314959
 H          5.7587461906       -1.5527462522       -1.3156251430
 H          7.1224611705       -0.4588363810       -1.5732978977
 C          5.2043628166        0.5059131098       -1.5097254997
 H          5.6887107072        1.4818863191       -1.4822701026
 H          4.9166374424        0.2865487353       -2.5408168742
 H          5.4983348296        0.9317425228        2.5680327466
 H          6.5064648768        2.3598984406        2.3306029115
 H          4.3338105124        2.9342406886        1.5991064167
 H          5.3252165572        2.7690293009        0.1397647569
 O          2.7393330112        1.2267446026        1.2219040198
 C          1.6634472408        0.3977309429        0.9333567878
 O          0.7442436409        0.4805090994        1.7740727969
 O          2.9345834228       -1.0476400574       -2.1300035795
 C          0.6001078742       -1.3350150992       -0.6105799195
 C         -0.5492740258       -0.6206955972       -1.2793608143
 C         -0.9926901451       -0.9995269696       -2.5408574062
 C         -2.0771464606       -0.3700992210       -3.1282164499
 C         -2.7393379657        0.6524094822       -2.4720785763
 C         -2.2966367444        1.0427862135       -1.2156637166
 C         -1.2174145276        0.4040963865       -0.6245734227
 H         -0.8884883977        0.7083569713        0.3579463063
 N         -2.9767609239        2.0755970356       -0.5266546597
 S         -4.5078166456        1.6419455418        0.0045867662
 O         -5.3694467499        1.4951920237       -1.1407754053
 O         -4.8936210170        2.6441409996        0.9716879589
 C         -4.2658421830        0.0639120738        0.7982629632
 C         -3.8643607062        0.0454985007        2.1187233514
 C         -3.5909895815       -1.1725340521        2.7190265290
 C         -3.7122466855       -2.3433682104        1.9868859267
 C         -4.1092188231       -2.3074071444        0.6591445647
 C         -4.3878006140       -1.0925396594        0.0546301914
 H         -4.7008359832       -1.0211043511       -0.9739744591
 H         -4.1972842254       -3.2194576105        0.0912491946
 H         -3.4969304582       -3.2899204369        2.4579085206
 H         -3.2770107700       -1.2030043129        3.7501760688
 H         -3.7829871424        0.9782873164        2.6539598194
 H         -2.4471475343        2.4174818453        0.2641898465
 H         -3.5954223708        1.1447107831       -2.9042536403
 H         -2.4100777478       -0.6776927597       -4.1077235393
 H         -0.4758786190       -1.7889163109       -3.0664320438
 H          1.0489394579       -2.0111467732       -1.3505648094
 C          0.0801665473       -2.1679592887        0.5464735556
 C         -0.5316143319       -3.5049465107        0.2612440962
 C          0.8071231711       -3.4203795706        0.9295391751
 H          0.8822500870       -3.6713009216        1.9768020910
 H          1.6835973447       -3.6838623168        0.3552222243
 H         -1.3799852371       -3.8157335099        0.8495274603
 H         -0.5631018356       -3.8312902345       -0.7669553981
 H         -0.3484421247       -1.5751969317        1.3442955912
