  62
        -98.94029732
 C          2.1072526051        1.2335994569       -0.0803782181
 C          2.4077302863        0.0251587263       -0.7575798388
 C          3.8172858355       -0.4006708329       -0.7128060584
 C          4.7207901875        0.3521471026       -0.0615030813
 C          6.1730082687        0.0095042064        0.0982288240
 C          6.4165386619       -0.7914822432        1.3848847415
 C          5.4655884935       -1.9748498943        1.5650129117
 H          4.4494772960       -1.5991272171        1.7062465341
 H          5.7506423046       -2.4834962762        2.4885290356
 C          5.4754647405       -2.9796322039        0.4045183521
 H          5.5035890194       -3.9904619775        0.8168626450
 H          6.3792042370       -2.8483542163       -0.1918252732
 C          4.2505718394       -2.9063755071       -0.5092685497
 H          3.3393167910       -2.9450870469        0.0934337488
 H          4.2535532741       -3.7905515168       -1.1525076519
 C          4.1714263431       -1.6769067379       -1.4229767038
 H          3.3674692551       -1.8524932375       -2.1440147208
 H          5.1082675929       -1.5660183332       -1.9730991895
 H          6.2942458578       -0.1211300461        2.2387950669
 H          7.4478289930       -1.1489670289        1.3787963247
 H          6.5033838695       -0.5626486006       -0.7665447125
 H          6.7424856141        0.9392820108        0.1464860432
 O          4.3957212850        1.5047307413        0.5772721632
 C          3.0878655975        1.9587680072        0.6036684962
 O          2.9261421598        3.0061194219        1.2609217424
 H         -1.1451863894        0.4622866099       -1.5572510610
 C         -1.1492632050        0.1301257005       -0.5309729963
 C         -0.2696003676        0.6958673728        0.3781334834
 C         -0.2714298406        0.2262177069        1.6880670075
 C         -1.1257861254       -0.7893335669        2.0750045616
 C         -1.9949523478       -1.3597955134        1.1621643722
 C         -1.9972183659       -0.9009757367       -0.1482893152
 N         -2.8734678660       -1.4822261301       -1.0811535771
 S         -4.4796887031       -1.6473500579       -0.6500174204
 O         -4.6364464440       -2.7768365009        0.2317744874
 O         -5.2057313368       -1.7124008416       -1.8986604503
 C         -4.8652637438       -0.1380787401        0.2196935825
 C         -5.0950209019       -0.1598180023        1.5798594284
 C         -5.3346332968        1.0363698110        2.2376916782
 C         -5.3355999554        2.2269862095        1.5282951230
 C         -5.1059991251        2.2320775993        0.1606806766
 C         -4.8657311213        1.0396891387       -0.5016553754
 H         -4.6915739801        1.0046152169       -1.5651423101
 H         -5.1100983203        3.1597723028       -0.3888764951
 H         -5.5177114157        3.1572771359        2.0428364563
 H         -5.5156909014        1.0359685315        3.3004664777
 H         -5.0864665286       -1.1069683503        2.0937247977
 H         -2.7760143053       -1.1162986061       -2.0164068150
 H         -2.6584791069       -2.1627505643        1.4397281286
 H         -1.1124625833       -1.1444889292        3.0943570633
 H          0.4158434221        0.6639039775        2.3995665141
 C          0.6945794520        1.7909127955       -0.0031154353
 H          0.7250664100        2.5153191796        0.8265366822
 C          0.2552799164        2.5685526275       -1.2351457363
 C          1.2301649472        3.4299008409       -1.9796247480
 C          0.6702896452        2.2004073530       -2.6266133371
 H         -0.0483376096        2.3260642799       -3.4239160221
 H          1.3139098940        1.3444061851       -2.7527717187
 H          2.2597089295        3.4131094028       -1.6524126521
 H          0.9002920131        4.3954594304       -2.3321483554
 H         -0.7473092069        2.9688660178       -1.1172324093
 O          1.5631293674       -0.6705299075       -1.3775269376
