  62
        -98.93735334
 C         -1.7379691497       -0.4989226045       -0.3948543815
 C         -2.8081111784       -1.2567603729        0.1370066419
 C         -4.1611009874       -0.7534658698       -0.1424173428
 C         -4.3040497130        0.3644058928       -0.8775789050
 C         -5.6081657947        1.0451974693       -1.1828315769
 C         -6.0874011997        1.8417998795        0.0475952053
 C         -7.3816700180        1.3196570437        0.6719640365
 H         -7.4996385437        1.8122796074        1.6394871819
 H         -8.2240766292        1.6195269614        0.0450497097
 C         -7.4626557084       -0.1969062229        0.8711036137
 H         -7.7154517764       -0.6782860932       -0.0747557698
 H         -8.2987084297       -0.3840585389        1.5483535790
 C         -6.2063133772       -0.8666226162        1.4425959876
 H         -5.6108808815       -0.1485578493        2.0068230266
 H         -6.5238995451       -1.6389128034        2.1460990338
 C         -5.3141798990       -1.5565679861        0.3935997147
 H         -4.8520813025       -2.4355848879        0.8525553259
 H         -5.9323871122       -1.9071553138       -0.4374213929
 H         -6.2392266436        2.8855958972       -0.2314809629
 H         -5.2903638808        1.8301331661        0.7940204399
 H         -5.4346915157        1.7152620289       -2.0251241597
 H         -6.3505038188        0.3050584778       -1.4732550436
 O         -3.2503432741        1.0630039573       -1.3752485356
 C         -1.9431021528        0.6566552270       -1.1476964852
 O         -1.0806152966        1.3942399110       -1.6606105947
 H          2.0402954805        0.3281112076       -0.8567365603
 C          1.6298567240        0.6590339312        0.0822274753
 C          0.4548836870        0.1137113922        0.5736168124
 C         -0.0484723998        0.5891016449        1.7833147858
 C          0.5950789258        1.5986366925        2.4700349874
 C          1.7624624992        2.1501279995        1.9707887962
 C          2.2765812018        1.6798104657        0.7689599879
 N          3.4508764402        2.2301267110        0.2419905190
 S          4.5092394939        1.3304766851       -0.6734912484
 O          5.7640818587        2.0457712474       -0.5691451161
 O          4.0068056774        1.1452009702       -2.0116402183
 C          4.6510951040       -0.2507032098        0.1435369360
 C          4.6649603619       -1.3969097464       -0.6239571197
 C          4.7969083405       -2.6262240016        0.0019338771
 C          4.9121806953       -2.6874319280        1.3816094379
 C          4.9025132729       -1.5266619138        2.1397318079
 C          4.7744298979       -0.2950744322        1.5182184041
 H          4.7693879853        0.6204870572        2.0863703222
 H          4.9933892603       -1.5772314790        3.2127876785
 H          5.0105386220       -3.6448693144        1.8684241336
 H          4.8056924581       -3.5287820053       -0.5879065500
 H          4.5668294796       -1.3020047184       -1.6933640336
 H          3.9182367687        2.9075107854        0.8248898579
 H          2.2636439074        2.9466952748        2.4992135331
 H          0.1885072807        1.9605840649        3.4022978323
 H         -0.9625592081        0.1593460175        2.1697611898
 C         -0.3144292600       -0.9660914880       -0.1435473029
 H         -0.4076806690       -1.8285805736        0.5326656376
 C          0.3234632697       -1.4307971142       -1.4344680239
 C          1.4122865994       -2.4595266068       -1.4069553220
 C          0.0490534356       -2.8251440628       -1.9101066294
 H         -0.0851281204       -2.9920370969       -2.9683865384
 H         -0.5794235667       -3.4447518128       -1.2872779815
 H          1.7191283019       -2.8369011490       -0.4433606918
 H          2.2145393874       -2.3726362571       -2.1234439158
 H          0.3766356102       -0.6484916201       -2.1839756193
 O         -2.6386135827       -2.3045373436        0.8169485145
