  62
        -98.93688865
 C         -1.9799152021       -0.1819716234       -0.2730607129
 C         -2.7852124118        0.8289024309        0.3022925232
 C         -4.1471787889        0.4304369921        0.7095932379
 C         -4.5354987379       -0.8463031043        0.5562323973
 C         -5.8802025744       -1.4424421416        0.8680807211
 C         -6.7779163262       -1.4421614865       -0.3808448031
 C         -7.5784864435       -0.1586878914       -0.5985853313
 H         -8.0603723085       -0.2382770089       -1.5758409202
 H         -8.3693645406       -0.0979371257        0.1520279845
 C         -6.7628861654        1.1361412616       -0.5557037264
 H         -5.8293288633        1.0009414794       -1.1049061949
 H         -7.3340752293        1.9081907202       -1.0749153794
 C         -6.4654780813        1.6146929754        0.8731708316
 H         -7.0864260105        1.0547705458        1.5722138932
 H         -6.7578106224        2.6622796312        0.9710134628
 C         -4.9935621308        1.5245700790        1.3020859897
 H         -4.4785704377        2.4508623415        1.0292519829
 H         -4.9438232923        1.4509129410        2.3935482958
 H         -6.1419863896       -1.6321346139       -1.2494761546
 H         -7.4833034098       -2.2723060965       -0.3058244513
 H         -5.6992294524       -2.4775358889        1.1655772566
 H         -6.3532857491       -0.9184535591        1.6931871225
 O         -3.7207424613       -1.7968154503        0.0202498040
 C         -2.4466867771       -1.4924993740       -0.4141730211
 O         -1.8302521997       -2.4601584685       -0.9060606519
 O         -2.4116130220        2.0188758222        0.4781954727
 C         -0.5679590141        0.0575181810       -0.7831024886
 C          0.4530202653        0.0243538764        0.3292253089
 C          0.3632005500        0.8700031123        1.4305139632
 C          1.3182128277        0.8233402632        2.4291240576
 C          2.3936186830       -0.0434490361        2.3372867185
 C          2.4987123348       -0.8833272873        1.2361982697
 C          1.5243050825       -0.8532176171        0.2476459280
 H          1.6164620187       -1.5220411419       -0.5948249465
 N          3.5933051370       -1.7605780854        1.0913121614
 S          4.5680072652       -1.5438416460       -0.2545148253
 O          3.8185833056       -1.8192332303       -1.4524645093
 O          5.7313599319       -2.3680651268       -0.0161036476
 C          5.0202433260        0.1810151249       -0.1853546939
 C          6.2019534278        0.5342553293        0.4367807882
 C          6.5180835979        1.8771341758        0.5643235952
 C          5.6441210187        2.8397914602        0.0821778444
 C          4.4601638668        2.4689143352       -0.5365204822
 C          4.1412749009        1.1271860245       -0.6745677713
 H          3.2295774606        0.8069244501       -1.1517544870
 H          3.7787434018        3.2164192981       -0.9096963944
 H          5.8866745789        3.8854764976        0.1870877601
 H          7.4395356535        2.1682747883        1.0423511181
 H          6.8512827053       -0.2480068053        0.7956086174
 H          4.1728705408       -1.8232160857        1.9171254168
 H          3.1441101556       -0.0730749402        3.1129577100
 H          1.2309655567        1.4774708929        3.2832049351
 H         -0.4652118239        1.5579964563        1.4968940336
 H         -0.3517239905       -0.7871739362       -1.4519886297
 C         -0.4243034670        1.3407647342       -1.5801033561
 C          0.6591758163        1.4332732694       -2.6103255691
 C         -0.7755508430        1.3411355817       -3.0356073429
 H         -1.2505001620        2.2172804929       -3.4506223890
 H         -1.1203068769        0.4121772850       -3.4671850835
 H          1.1716568070        2.3743237506       -2.7389485859
 H          1.2850166905        0.5650855280       -2.7623005609
 H         -0.6610872736        2.2292188100       -1.0100438821
