  62
        -98.94488893
 C         -1.9367607630        0.5080556583        0.6477174100
 C         -2.9970939297        1.3110000381        0.1620467446
 C         -4.3379369425        0.7236409366        0.2529848475
 C         -4.4951546864       -0.4988741446        0.7925897904
 C         -5.8013430051       -1.2230587392        0.9763811814
 C         -6.2738122501       -1.9840675869       -0.2700555638
 C         -6.7909361928       -1.1067990695       -1.4108945430
 H         -7.2863010617       -1.7685986692       -2.1241359424
 H         -7.5456082248       -0.4202006263       -1.0260245012
 C         -5.6995549565       -0.3166709583       -2.1464226389
 H         -4.7221572040       -0.7488493969       -1.9192349094
 H         -5.8471864704       -0.4092634305       -3.2247823218
 C         -5.6693789139        1.1764426345       -1.8197221765
 H         -6.5941391488        1.6453912006       -2.1629727371
 H         -4.8388223596        1.6302539575       -2.3662585401
 C         -5.4849378881        1.4930861596       -0.3297145686
 H         -6.4033229951        1.2804093560        0.2168544483
 H         -5.2560360601        2.5569559107       -0.2307896694
 H         -7.0813147125       -2.6503819681        0.0421094776
 H         -5.4513848599       -2.6057862533       -0.6316128234
 H         -5.6452548084       -1.9446327493        1.7812137887
 H         -6.5718731135       -0.5170193605        1.2873345516
 O         -3.4517523382       -1.2317454377        1.2648518935
 C         -2.1477854283       -0.7614086943        1.1855372830
 O         -1.2925785623       -1.5526423499        1.6261090929
 O         -2.8297164391        2.4611381479       -0.3244342872
 C         -0.5186829182        1.0468501862        0.5657059556
 C          0.3079237182        0.1408269813       -0.3119002955
 C         -0.0932590679       -0.0432010957       -1.6339852538
 C          0.6001354555       -0.8930579502       -2.4719298988
 C          1.7167502065       -1.5708882425       -2.0128892141
 C          2.1285081921       -1.3923509522       -0.6984269305
 C          1.4289712113       -0.5344263359        0.1418349788
 H          1.7604633588       -0.4324569588        1.1608478440
 N          3.2456809243       -2.0852104279       -0.2052960031
 S          4.4036478657       -1.3048318000        0.7115278384
 O          5.5289359473       -2.2133490614        0.7196824895
 O          3.8704751900       -0.9372627327        1.9975893253
 C          4.8078492588        0.1501458297       -0.2370724280
 C          4.1732568023        1.3442065887        0.0380508283
 C          4.4489891578        2.4459076428       -0.7567595565
 C          5.3472625851        2.3349975974       -1.8066600473
 C          5.9793659390        1.1285148486       -2.0677719665
 C          5.7052520603        0.0228178057       -1.2797719182
 H          6.1821745998       -0.9303625411       -1.4412631194
 H          6.6811344128        1.0467678521       -2.8820798476
 H          5.5574433261        3.1950432773       -2.4227024297
 H          3.9597395289        3.3851485783       -0.5534166091
 H          3.4840538700        1.3934384276        0.8645471082
 H          3.6801477009       -2.7034916496       -0.8746906145
 H          2.2562517450       -2.2432309751       -2.6625903566
 H          0.2725612887       -1.0298026990       -3.4914477376
 H         -0.9679399839        0.4843253532       -1.9893892721
 H         -0.6102979761        2.0220161220        0.0652257144
 C          0.0542957899        1.2638987610        1.9490318753
 C          1.1151016887        2.2996739333        2.1663425109
 C         -0.2738271433        2.5297942332        2.6802691266
 H         -0.4481777674        2.4793175522        3.7445900072
 H         -0.8948726786        3.2511533337        2.1694787253
 H          1.9000571341        2.0908204043        2.8784624990
 H          1.4315346763        2.8744194644        1.3088010656
 H          0.1028523070        0.3527762499        2.5351168167
