  62
        -98.94258451
 C          1.1655575489        1.5602747150        0.5171612240
 C          2.1073401687        1.2403348368       -0.4877870746
 C          3.1460526210        0.2599766245       -0.1254467068
 C          3.1353726819       -0.2986099716        1.0990548557
 C          4.0666874481       -1.3066902784        1.7386114051
 C          4.9941278072       -2.1643716364        0.8817103692
 C          4.2840963882       -3.1499729932       -0.0453851934
 H          5.0425518377       -3.6498575867       -0.6525927679
 H          3.7902029502       -3.9110043989        0.5643944861
 C          3.2270712407       -2.5511638141       -0.9713071459
 H          2.3825074621       -2.1807978821       -0.3844798566
 H          2.8354613564       -3.3599696778       -1.5954818697
 C          3.7213978010       -1.4445414247       -1.9020842635
 H          2.9135159912       -1.2298763219       -2.6071600778
 H          4.5801697460       -1.8030855609       -2.4735160002
 C          4.1015388692       -0.1184324349       -1.2192075377
 H          5.1230690385       -0.1405957445       -0.8470951935
 H          4.0397617594        0.6752910263       -1.9695106070
 H          5.6748058579       -1.5361945364        0.3146896061
 H          5.6046581858       -2.7483623847        1.5760758700
 H          4.6779069823       -0.7438708542        2.4532542078
 H          3.4218181502       -1.9638623561        2.3310040185
 O          2.2086474146        0.0479191965        2.0393345562
 C          1.1911147716        0.9439583375        1.7655395725
 O          0.3811013717        1.1049537487        2.7027419406
 O          2.0856726571        1.7441763012       -1.6413397526
 C          0.0036842006        2.4837286118        0.2049776686
 C         -0.8626824224        1.8761945207       -0.8750702126
 C         -1.5570018847        2.6308394091       -1.8129241334
 C         -2.3498931854        2.0072259299       -2.7612575950
 C         -2.4832177987        0.6302584594       -2.7889423291
 C         -1.7951308649       -0.1326201820       -1.8524985340
 C         -0.9990956685        0.4962941167       -0.9101092032
 H         -0.4512519896       -0.1102576125       -0.2069559941
 N         -1.8799624727       -1.5323260128       -1.8387474434
 S         -1.8178765961       -2.3632482721       -0.3896916973
 O         -0.4841127398       -2.3442793336        0.1561924551
 O         -2.3472993201       -3.6712121705       -0.7136339928
 C         -2.9664304170       -1.5030748850        0.6704304550
 C         -2.5252550342       -0.7011789844        1.7024048262
 C         -3.4600748855       -0.0116646917        2.4600489984
 C         -4.8107672565       -0.1350148240        2.1770968654
 C         -5.2396851259       -0.9524068882        1.1416757335
 C         -4.3110001283       -1.6399593965        0.3792055036
 H         -4.6036384761       -2.2947737538       -0.4254284519
 H         -6.2912704031       -1.0523853701        0.9267091132
 H         -5.5315349500        0.4064372435        2.7691869255
 H         -3.1145907846        0.6204572456        3.2627396899
 H         -1.4699969388       -0.6136379634        1.9103179116
 H         -2.5489260955       -1.9326238207       -2.4791597219
 H         -3.1008184280        0.1493147585       -3.5315689458
 H         -2.8771034136        2.6041138150       -3.4898283980
 H         -1.4699708624        3.7051146264       -1.8063936707
 H         -0.5988124524        2.5344746798        1.1250481603
 C          0.4920896552        3.8768766565       -0.1349441640
 C         -0.3231893286        5.0782476081        0.2359757513
 C          0.9430864215        4.7745219546        0.9769015129
 H          1.8044197677        5.4046388419        0.8141087099
 H          0.8688010604        4.3898237831        1.9840123680
 H         -0.3300597153        5.9235220335       -0.4356418589
 H         -1.2586508407        4.9113876053        0.7484282970
 H          1.0564097719        3.9037024946       -1.0595667161
