  62
        -98.94366221
 C         -1.6926102828       -0.5238460784       -0.3143574981
 C         -2.9249930034       -1.0393478540       -0.7807808721
 C         -4.1060995880       -0.7096061677        0.0278312502
 C         -3.9523536913        0.0192268720        1.1486774401
 C         -5.0743795069        0.4681123597        2.0386675845
 C         -5.6021014686        1.8461050176        1.6152922508
 C         -5.9018903132        1.9599260742        0.1206280062
 H         -6.2960580476        2.9629159265       -0.0566816431
 H         -4.9666237311        1.8786123506       -0.4378305173
 C         -6.8983462884        0.9187231324       -0.4079184735
 H         -7.6198569168        1.4213745112       -1.0555154743
 H         -7.4565682766        0.4846122964        0.4223659988
 C         -6.2654827689       -0.2029371858       -1.2336218161
 H         -5.6300426390        0.2282725067       -2.0113248892
 H         -7.0680987264       -0.7512180923       -1.7341858675
 C         -5.4360525227       -1.2249204143       -0.4458741623
 H         -6.0227888695       -1.6077656304        0.3917238927
 H         -5.2119055406       -2.0588959625       -1.1176261238
 H         -4.8520695104        2.5975741211        1.8720522541
 H         -6.5069713720        2.0596717488        2.1871593468
 H         -4.6975818864        0.5315346280        3.0608555608
 H         -5.8764774576       -0.2665125780        2.0026994618
 O         -2.7484101632        0.4746631837        1.5785995536
 C         -1.5886786798        0.2239178886        0.8588827856
 O         -0.5582644512        0.7095644229        1.3599349084
 O         -3.0310878151       -1.7460931329       -1.8197356685
 C         -0.4284295072       -0.8138812942       -1.1035480191
 C          0.5482061779       -1.5675318290       -0.2359757344
 C          0.1260069626       -2.7396879560        0.3874196032
 C          0.9789456181       -3.4456116330        1.2123278627
 C          2.2705817821       -2.9996144363        1.4338109785
 C          2.7037596715       -1.8342005662        0.8135539070
 C          1.8454186108       -1.1322784846       -0.0228697321
 H          2.2009580410       -0.2383002020       -0.5040945763
 N          3.9882367201       -1.3375467411        1.0550850890
 S          4.8026335238       -0.3743466913       -0.0313973681
 O          4.6561641601       -0.8509366290       -1.3872764070
 O          6.1574659732       -0.3358801245        0.4769684952
 C          4.0645043938        1.2371935887        0.1352680021
 C          3.8721025414        2.0030724534       -0.9974696882
 C          3.3062565020        3.2612119831       -0.8694670372
 C          2.9478363900        3.7306874109        0.3846441879
 C          3.1550224596        2.9525646765        1.5130469405
 C          3.7206850321        1.6937602484        1.3914891177
 H          3.8853129591        1.0615380546        2.2479124656
 H          2.8695112617        3.3191093915        2.4858474671
 H          2.5009777020        4.7075673280        0.4828494263
 H          3.1428831261        3.8680408998       -1.7460021570
 H          4.1566928214        1.5924379133       -1.9535832660
 H          4.5958180256       -1.9187451234        1.6113234972
 H          2.9348711297       -3.5452477973        2.0863774922
 H          0.6374424040       -4.3517861032        1.6899575395
 H         -0.8850416559       -3.0852574850        0.2192345969
 H         -0.7403406065       -1.4763218503       -1.9246618901
 C          0.1334653265        0.4626451331       -1.6925577786
 C          0.9784510689        0.4118483826       -2.9288881847
 C         -0.4131109977        0.9635449240       -2.9945180636
 H         -0.5408019628        2.0275326753       -3.1248529503
 H         -1.1779675761        0.3697136042       -3.4735486275
 H          1.8080179553        1.0968077922       -3.0141487206
 H          1.1662795841       -0.5569909436       -3.3666227836
 H          0.3778187378        1.2004883406       -0.9359734062
