  62
        -98.93803883
 C          1.5754719600        1.0891440410        0.1868973508
 C          2.6902007399        0.8231140209        1.0276895408
 C          3.4586782499       -0.3932512591        0.7390208308
 C          3.0547242599       -1.2003455390       -0.2580277792
 C          3.7594508499       -2.4532498391       -0.6884048493
 C          4.7844288300       -2.1607995790       -1.7932082092
 C          5.7145955200       -0.9890086691       -1.4791716191
 H          6.4127537100       -0.8955854691       -2.3139054990
 H          5.1291738500       -0.0672114791       -1.4463655290
 C          6.5014347099       -1.1355219292       -0.1691880090
 H          6.5026012898       -2.1790308292        0.1478543409
 H          7.5400985599       -0.8516308592       -0.3514450789
 C          5.9946382499       -0.2581278192        0.9771757510
 H          5.9043710199        0.7758700908        0.6344775011
 H          6.7436857498       -0.2736759993        1.7733628511
 C          4.6572030598       -0.6795656392        1.5988836409
 H          4.6948634197       -1.7368336592        1.8687971608
 H          4.5169932298       -0.0960893493        2.5134348009
 H          5.3764684999       -3.0620305691       -1.9624871592
 H          4.2448725000       -1.9310399990       -2.7149946292
 H          4.2546792798       -2.8990955691        0.1719423307
 H          3.0173127599       -3.1547506190       -1.0732600493
 O          1.9706348000       -0.9318517590       -1.0243234693
 C          1.2204600200        0.2265145011       -0.8512011193
 O          0.2950342101        0.3331342811       -1.6759240893
 O          3.0270329499        1.5753781008        1.9807749209
 C          0.7739440500        2.3471645710        0.5082080608
 C         -0.6547904100        1.9705923210        0.8055945607
 C         -1.0052139901        1.7230429810        2.1322743506
 C         -2.2682136202        1.2731576010        2.4692794105
 C         -3.2147956701        1.0368226411        1.4877580805
 C         -2.8755682600        1.2716629812        0.1632200905
 C         -1.6172858000        1.7553654111       -0.1692817394
 H         -1.3851305099        1.9032846512       -1.2092134494
 N         -3.8037988200        0.9774228213       -0.8537807196
 S         -4.5398687100       -0.5239003687       -0.7605804697
 O         -4.8100249800       -0.9090445086       -2.1285453397
 O         -5.6976531501       -0.4313356087        0.0960775502
 C         -3.3472753001       -1.6291260688       -0.0189754197
 C         -2.0739714201       -1.7005532888       -0.5479164096
 C         -1.1549483502       -2.5567986289        0.0370682804
 C         -1.5205216503       -3.3283573889        1.1287641403
 C         -2.8055938603       -3.2505004189        1.6430196903
 C         -3.7276246102       -2.3917055188        1.0672541602
 H         -4.7337246203       -2.2917359588        1.4412648202
 H         -3.0888236904       -3.8513420489        2.4921595202
 H         -0.7984067903       -3.9906313690        1.5799759404
 H         -0.1540316702       -2.6016751389       -0.3634511395
 H         -1.7880199800       -1.0871250088       -1.3879559896
 H         -3.4336092599        1.1269448313       -1.7819420595
 H         -4.1997090502        0.6673566511        1.7238961604
 H         -2.5155958203        1.0926216810        3.5040280105
 H         -0.2642373602        1.8737809909        2.9045646807
 H          1.2076949999        2.6865366309        1.4612299908
 C          1.0493084501        3.4819007010       -0.4721796191
 C          0.6768494102        3.4959245911       -1.9239085891
 C         -0.0013871298        4.4293458611       -0.9673625591
 H          0.2436385002        5.4796762511       -1.0208504491
 H         -1.0272834799        4.2320750511       -0.6980713092
 H          1.3964368303        3.9100227011       -2.6165984491
 H          0.1395420702        2.6548090812       -2.3291677492
 H          2.0172344401        3.9257853710       -0.2528598690
