  62
        -98.94625547
 C          1.8093077128        1.0434681697       -0.3102148499
 C          3.1675115490        1.2979030973       -0.0034015450
 C          4.1187212618        0.2567991565       -0.4078655770
 C          3.6745906409       -0.8429345872       -1.0435910985
 C          4.5239829929       -1.9819956710       -1.5389631830
 C          4.8511250401       -3.0304538424       -0.4666093331
 C          5.8653947745       -2.5879543181        0.5888150199
 H          6.1641795010       -3.4816134488        1.1403527153
 H          6.7559558586       -2.1980918951        0.0948741299
 C          5.3305199270       -1.5497532765        1.5850738451
 H          5.6109605897       -1.8405575772        2.5999464549
 H          4.2388296942       -1.5365961060        1.5459878211
 C          5.8506592161       -0.1297712977        1.3612361728
 H          6.9296764854       -0.1035411460        1.5287743718
 H          5.3804335107        0.5281848820        2.0965903191
 C          5.5594547451        0.4361196154       -0.0348691119
 H          5.7679449016        1.5087640969       -0.0206277620
 H          6.2060298583       -0.0355682497       -0.7745020419
 H          5.2533566700       -3.9065750226       -0.9804124439
 H          3.9222637746       -3.3299848924        0.0240727483
 H          5.4498753691       -1.5915825439       -1.9622705211
 H          3.9563879037       -2.4689377233       -2.3348443131
 O          2.3614100207       -1.0419090087       -1.3346256860
 C          1.3964763282       -0.1160883777       -0.9647083389
 O          0.2338386741       -0.4376697756       -1.2732386560
 O          3.5636306237        2.3416604915        0.5809888804
 C          0.7626905508        2.0709124868        0.0803716005
 C         -0.2805552843        1.4370694261        0.9658806432
 C          0.1344231159        0.7774737517        2.1212187618
 C         -0.7818604355        0.1781410871        2.9623519697
 C         -2.1338123600        0.2165822859        2.6658729434
 C         -2.5596201869        0.8768046725        1.5206959209
 C         -1.6360033806        1.4916777006        0.6842577795
 H         -1.9976763403        1.9920385885       -0.1976565887
 N         -3.9296870213        0.9614240326        1.2101839957
 S         -4.4969869683        0.4475293408       -0.2786706614
 O         -3.8618034006        1.1930331570       -1.3331623209
 O         -5.9350301615        0.5763427334       -0.1815441457
 C         -4.0673264962       -1.2821859135       -0.3605916159
 C         -2.7698055807       -1.6510975073       -0.6535367835
 C         -2.4485113754       -3.0003414194       -0.6544807173
 C         -3.4166589525       -3.9491093646       -0.3656220843
 C         -4.7151773309       -3.5597459556       -0.0720999277
 C         -5.0439101100       -2.2144529746       -0.0643191826
 H         -6.0403575751       -1.8651399270        0.1534317148
 H         -5.4683432271       -4.2984222244        0.1505408585
 H         -3.1570761500       -4.9961717965       -0.3706721204
 H         -1.4349301390       -3.2898552178       -0.8831155436
 H         -2.0224795908       -0.9067600908       -0.8798190688
 H         -4.5327258857        0.5986986945        1.9356555299
 H         -2.8526595046       -0.2554274869        3.3184769162
 H         -0.4431749620       -0.3285352374        3.8534398813
 H          1.1914920511        0.7424994396        2.3482106905
 H          1.3021688474        2.8264276307        0.6711067546
 C          0.1922727183        2.7402891872       -1.1518832309
 C         -0.3507250217        4.1342311013       -1.0653935970
 C          0.9438765967        3.8766378409       -1.7747641887
 H          0.9676435934        3.9508323182       -2.8517037547
 H          1.8613031331        4.1854736567       -1.2950888710
 H         -1.2210468803        4.3833750661       -1.6539167511
 H         -0.3134797031        4.6257987451       -0.1049106589
 H         -0.3016187370        2.0438096771       -1.8213041612
