  62
        -98.94953054
 C         -1.5798258350        0.9006660907        0.7022796703
 C         -1.3970802164        1.6804879717       -0.4647993318
 C         -0.3464111210        2.7067361851       -0.3915324183
 C          0.3882751981        2.8206101851        0.7292426143
 C          1.4833105452        3.8257826129        0.9432841025
 C          2.8606423218        3.2837511011        0.5398520381
 C          2.8997086429        2.6464911959       -0.8492736221
 H          3.9348069897        2.3549277337       -1.0448753434
 H          2.3090343872        1.7273960078       -0.8560327006
 C          2.4019884660        3.5529962489       -1.9829736460
 H          2.4184523823        4.5966352793       -1.6649089276
 H          3.0870318603        3.4587537068       -2.8282656365
 C          1.0065352153        3.1952026094       -2.4990603382
 H          0.9536757314        2.1170132143       -2.6752925143
 H          0.8584578467        3.6952605560       -3.4604070131
 C         -0.1631817066        3.5940151135       -1.5897964356
 H         -0.0539711148        4.6380039315       -1.2859061736
 H         -1.0842649190        3.4999389964       -2.1728356482
 H          3.5762739243        4.1076532582        0.5798271360
 H          3.1704919770        2.5328396719        1.2706853130
 H          1.2554647689        4.7213175344        0.3679098508
 H          1.5033867096        4.0836340753        2.0039851239
 O          0.2205343331        2.0146981660        1.8098122145
 C         -0.7590450502        1.0332367322        1.8207795488
 O         -0.7985731459        0.3577476993        2.8689663514
 H         -0.3049601440       -1.2892330970        0.2506928134
 C         -1.0460285316       -1.6553449629       -0.4448577507
 C         -2.3530114289       -1.1970826561       -0.3406982355
 C         -3.3021027840       -1.6915593319       -1.2249385821
 C         -2.9341665834       -2.5948404144       -2.2079203679
 C         -1.6209984722       -3.0074211996       -2.3401855831
 C         -0.6666903878       -2.5281980274       -1.4495169725
 N          0.6778588548       -2.9201116618       -1.5338818895
 S          1.8715967063       -1.8054447566       -1.1612838971
 O          1.4878665488       -0.4614861117       -1.5214067860
 O          3.0573012746       -2.3213495548       -1.8150301146
 C          2.0819427968       -1.9567380592        0.5990930697
 C          2.1942602752       -0.8185972521        1.3711027147
 C          2.3744798117       -0.9464510348        2.7385697044
 C          2.4439609014       -2.2084307193        3.3069504549
 C          2.3379033590       -3.3437089048        2.5173923446
 C          2.1561643102       -3.2209739005        1.1494699417
 H          2.0655356368       -4.0788732067        0.5042929444
 H          2.3912756105       -4.3228708029        2.9655404056
 H          2.5775324904       -2.3045165199        4.3728715546
 H          2.4406083619       -0.0613796344        3.3509200011
 H          2.1176382883        0.1461201334        0.8942038593
 H          0.9135071753       -3.4752363201       -2.3436046022
 H         -1.3322699392       -3.6887038551       -3.1260806260
 H         -3.6788644413       -2.9684136719       -2.8944223331
 H         -4.3253407376       -1.3608569640       -1.1549609593
 C         -2.6465486252       -0.1806547927        0.7357453087
 H         -2.5447441294       -0.6776343362        1.7118731113
 C         -4.0287691417        0.4290714696        0.6378838753
 C         -5.2036046117       -0.2626054117        1.2598533279
 C         -4.6600493666        0.9908672661        1.8750589855
 H         -5.2357766647        1.9004411437        1.7927008257
 H         -4.1010228118        0.9102782374        2.7961081931
 H         -5.0215734657       -1.1963047097        1.7699959031
 H         -6.1574614794       -0.2118889407        0.7568145765
 H         -4.1809848568        0.9675202663       -0.2903735550
 O         -2.0921580613        1.5468108584       -1.5061252470
