  62
        -98.93800545
 C         -1.5994065990       -1.6174356874        0.2683556384
 C         -1.7769091209       -0.4537955739        1.0566136188
 C         -2.8716177003        0.4612286143        0.6826271604
 C         -3.6253168919        0.1569509093       -0.3904886788
 C         -4.7935145782        0.9148749384       -0.9659167079
 C         -4.3706331101        2.1658154692       -1.7496442680
 C         -3.3278970490        3.0283431761       -1.0455140548
 H         -2.4411281523        2.4219979879       -0.8574364057
 H         -3.0415010512        3.8305316220       -1.7307756084
 C         -3.7931134178        3.6678496052        0.2608281819
 H         -3.0149809643        4.3660815571        0.5796958937
 H         -4.6978053606        4.2502030195        0.0733082808
 C         -4.0632889900        2.7028352981        1.4187864423
 H         -5.0396829470        2.2347502044        1.3236557313
 H         -4.0946667027        3.2969900801        2.3365966287
 C         -2.9935695151        1.6347250221        1.6245902297
 H         -3.1290172735        1.1947161746        2.6197580866
 H         -2.0050968163        2.1069783193        1.6537193062
 H         -5.2623881144        2.7594411545       -1.9584163196
 H         -3.9502532728        1.8421866244       -2.7050540650
 H         -5.3011978034        0.2308684379       -1.6497366094
 H         -5.4942910121        1.1743679820       -0.1778529690
 O         -3.3799746648       -0.9439922709       -1.1550597391
 C         -2.3713240656       -1.8466169548       -0.8702383860
 O         -2.2864622733       -2.7775935379       -1.6941057608
 O         -1.0527413458       -0.1900377306        2.0546293097
 C         -0.4980279887       -2.5723484143        0.6987321216
 C          0.7660782230       -2.2443767783       -0.0570176891
 C          0.9324753168       -2.5836075840       -1.3952639112
 C          2.0893160950       -2.2303696228       -2.0671120068
 C          3.0991911503       -1.5342971745       -1.4246095291
 C          2.9340178620       -1.1775387038       -0.0929514152
 C          1.7748925845       -1.5363998092        0.5812995736
 H          1.6418370380       -1.2435370247        1.6140745201
 N          3.9515214515       -0.4561292041        0.5681356977
 S          4.3078390958        1.0734101380       -0.0110018454
 O          4.7920894383        0.9610369046       -1.3626283221
 O          5.2176140511        1.6483363249        0.9525203431
 C          2.7580857773        1.9555569345        0.0137732269
 C          1.8587577149        1.7591197704       -1.0151714743
 C          0.6380731438        2.4123540869       -0.9680936867
 C          0.3403441759        3.2460873124        0.0984831990
 C          1.2513162585        3.4271240905        1.1271876437
 C          2.4710066044        2.7717648717        1.0893813725
 H          3.2106928386        2.8879823877        1.8652893144
 H          1.0130423720        4.0727515092        1.9572446750
 H         -0.6079413721        3.7594456974        0.1245067982
 H         -0.0759067039        2.2667109522       -1.7637114293
 H          2.1257066428        1.1105443244       -1.8338337786
 H          3.8082930974       -0.4009518600        1.5672422237
 H          3.9998367451       -1.2424060491       -1.9400596529
 H          2.2077086374       -2.5009440563       -3.1056202465
 H          0.1382425361       -3.1024871608       -1.9092575198
 H         -0.3182908599       -2.3417880000        1.7576229712
 C         -0.8719606123       -4.0353563683        0.5866283666
 C         -0.0707570025       -5.0439496957        1.3522497799
 C         -1.4751159468       -4.7287325309        1.7696974569
 H         -2.2445857164       -5.4658989874        1.5962736799
 H         -1.6218676526       -4.1498495037        2.6700465442
 H          0.1277757132       -5.9999180331        0.8928467008
 H          0.7358654312       -4.6775353005        1.9693762769
 H         -1.2385707631       -4.3200858771       -0.3900893769
