  62
        -98.94374317
 C         -1.4841646079       -1.2592482615        0.7154191769
 C         -2.5444401524       -1.1731285567       -0.2190393012
 C         -3.4291038078       -0.0049499869       -0.0745061320
 C         -3.1439235008        0.9364006681        0.8429263391
 C         -3.9225477976        2.2043417857        1.0420499636
 C         -3.3916374777        3.3434418387        0.1597196715
 C         -3.2017615520        2.9563304507       -1.3065888705
 H         -2.8399760098        3.8416590789       -1.8341260109
 H         -2.4212925005        2.1952810649       -1.3808548579
 C         -4.4687507276        2.4301878061       -1.9939614181
 H         -5.3499209030        2.7085618675       -1.4147129841
 H         -4.5616278821        2.9045114527       -2.9732206338
 C         -4.4712439933        0.9184522271       -2.2255172356
 H         -3.5471892642        0.6219350337       -2.7281945375
 H         -5.2996651251        0.6775638014       -2.8971065552
 C         -4.6364781699        0.0550874903       -0.9687626306
 H         -5.5102258799        0.3914887186       -0.4063962635
 H         -4.8153527431       -0.9727225460       -1.2979839802
 H         -4.0871503316        4.1820120242        0.2263657594
 H         -2.4279669975        3.6725468468        0.5543728096
 H         -4.9703051808        2.0169955229        0.8138132743
 H         -3.8375801339        2.4981571912        2.0895475821
 O         -2.0748001617        0.8546784140        1.6751869640
 C         -1.2350328384       -0.2435315146        1.6445063375
 O         -0.3131478082       -0.2087156464        2.4829908888
 H          1.9719169982       -1.5162938562        1.2915009446
 C          1.8235414739       -1.6368907931        0.2265297297
 C          0.6063575259       -2.1149661219       -0.2388283466
 C          0.4150391785       -2.2279412424       -1.6117259381
 C          1.4234122059       -1.8749173025       -2.4909330350
 C          2.6376962919       -1.4010657726       -2.0235715458
 C          2.8327871176       -1.2768693593       -0.6551994542
 N          4.0597343037       -0.7604291526       -0.1753393814
 S          4.2929726880        0.8759887749       -0.4535359356
 O          4.3215576951        1.1020558149       -1.8754879704
 O          5.4864670108        1.2322625432        0.2786479560
 C          2.8684248383        1.6668393797        0.2702345577
 C          1.6988729382        1.7344794141       -0.4594186782
 C          0.5732037072        2.2797033564        0.1351541706
 C          0.6318609956        2.7382632775        1.4411892475
 C          1.8135351620        2.6613872088        2.1605944501
 C          2.9428472648        2.1157966716        1.5733868020
 H          3.8818840869        2.0369386539        2.0979530092
 H          1.8518114058        3.0133593377        3.1789041101
 H         -0.2530942417        3.1432231277        1.9063105481
 H         -0.3505786088        2.3326944025       -0.4192775886
 H          1.6862133585        1.3657855151       -1.4727510134
 H          4.1994355656       -0.9385515125        0.8102288701
 H          3.4248956540       -1.1010421532       -2.6959013447
 H          1.2617536189       -1.9658717116       -3.5545237774
 H         -0.5397913499       -2.5664090670       -1.9831974822
 C         -0.4941064052       -2.4151552104        0.7487351450
 H         -0.0513143276       -2.3965592982        1.7536901015
 C         -1.1210003996       -3.7759845134        0.5321587306
 C         -0.3547054960       -4.9941873462        0.9485210187
 C         -1.5675566052       -4.5710759496        1.7204487548
 H         -2.4671998153       -5.1618316395        1.6354364551
 H         -1.4232523717       -4.1361977263        2.6990461078
 H         -0.4185245734       -5.8781478294        0.3329034703
 H          0.6130801393       -4.8454333706        1.4037598377
 H         -1.7272634567       -3.8430374856       -0.3603493361
 O         -2.7692743908       -2.0145639076       -1.1277527994
