  62
        -98.94157759
 C          2.4510358942        1.0560296372        0.2440752183
 C          2.5883036157        0.0904811142        1.2750039293
 C          3.0462833858       -1.2431320792        0.8708538853
 C          3.3100510155       -1.4788429637       -0.4264542355
 C          3.7404989241       -2.8013295228       -0.9899754584
 C          2.5355533178       -3.6316197359       -1.4528219338
 C          1.4147275357       -3.7380795014       -0.4178979759
 H          0.9452344604       -2.7588148730       -0.2897380318
 H          0.6489960960       -4.3933771478       -0.8405786310
 C          1.8570409244       -4.2842655249        0.9471217997
 H          1.1163703856       -5.0124871657        1.2842139616
 H          2.8070415485       -4.8106275925        0.8447194607
 C          1.9756400109       -3.2291923916        2.0486244125
 H          1.0665127198       -2.6224493379        2.0671333925
 H          2.0478948488       -3.7466153825        3.0090648801
 C          3.1806371815       -2.2859972036        1.9436594980
 H          3.2584728586       -1.7372214064        2.8867267289
 H          4.0943605878       -2.8677331856        1.8062190839
 H          2.1199771157       -3.1717331519       -2.3529342982
 H          2.8878429713       -4.6318707454       -1.7136083273
 H          4.3908178677       -2.6145778116       -1.8465973012
 H          4.3004628756       -3.3466752429       -0.2326151463
 O          3.1783829747       -0.5309059660       -1.3868495030
 C          2.7086880270        0.7436364666       -1.0903420652
 O          2.5857331237        1.4710973877       -2.0955022107
 O          2.3432429952        0.3430788501        2.4851767047
 C          1.9093090572        2.4126736118        0.6653876867
 C          0.4031356618        2.3521301189        0.6495047864
 C         -0.3592969520        2.7143742127        1.7529762157
 C         -1.7362293791        2.5666143407        1.7391165720
 C         -2.3769640204        2.0345817589        0.6334818862
 C         -1.6214285045        1.6744326580       -0.4737353572
 C         -0.2489248151        1.8500041011       -0.4685645460
 H          0.3272717042        1.5592862772       -1.3357980227
 N         -2.2602386527        1.0407448835       -1.5761939087
 S         -2.3262766360       -0.6306686881       -1.3214426277
 O         -1.1249546539       -1.1150297799       -0.6774846468
 O         -2.6434453904       -1.2163023556       -2.6059074222
 C         -3.7166673540       -0.7810683224       -0.2234912091
 C         -3.5022812818       -1.0297597200        1.1174874446
 C         -4.5949602683       -1.0964347969        1.9680486072
 C         -5.8737537208       -0.9121736626        1.4645460435
 C         -6.0717344237       -0.6643210262        0.1140724435
 C         -4.9838621547       -0.5958081478       -0.7413733581
 H         -5.0876412651       -0.4089719459       -1.7972260213
 H         -7.0677943336       -0.5221579880       -0.2729896718
 H         -6.7213262857       -0.9620666505        2.1297084383
 H         -4.4420354313       -1.2877198821        3.0179739943
 H         -2.4892599775       -1.1607785417        1.4640241398
 H         -1.7606669122        1.1963565989       -2.4428563716
 H         -3.4455606783        1.8942634356        0.6191516082
 H         -2.3141763660        2.8507111943        2.6048320684
 H          0.1379060388        3.0895044929        2.6353931984
 H          2.2245310923        2.5315228918        1.7142089736
 C          2.4798506521        3.5823029559       -0.1209256181
 C          1.6755148994        4.3979135816       -1.0843276037
 C          2.0767787468        4.9832268410        0.2342535937
 H          2.8349113483        5.7510282904        0.2524415113
 H          1.3056333515        5.1021278018        0.9803023641
 H          2.1689619851        4.7391095502       -1.9815070437
 H          0.6389724802        4.1385732589       -1.2335533681
 H          3.5210068072        3.4247714053       -0.3821900659
