  62
        -98.94074738
 C         -2.5722038602       -1.3778945997        0.2345644297
 C         -2.7911278100       -0.5222879201       -0.8726671206
 C         -3.6660678601        0.6358128399       -0.6271545212
 C         -4.1910643205        0.8276546703        0.5956627486
 C         -5.0519715607        1.9915074703        0.9908311880
 C         -4.2078969509        3.1447452806        1.5507322778
 C         -3.0116784707        3.5188087904        0.6749642480
 H         -2.2958531207        2.6924830105        0.6711073184
 H         -2.5120994709        4.3658902206        1.1504879878
 C         -3.3727235504        3.8855682599       -0.7713937722
 H         -2.8157758304        4.7818285999       -1.0528515824
 H         -4.4340071504        4.1278097098       -0.8383947426
 C         -3.0320829401        2.8090479296       -1.8036276218
 H         -1.9920434001        2.4967374797       -1.6726677914
 H         -3.1155677499        3.2544528293       -2.7986934820
 C         -3.9224903400        1.5597520495       -1.7846649316
 H         -3.7011635597        0.9808692992       -2.6861678014
 H         -4.9724470300        1.8571551394       -1.8160590019
 H         -3.8319092211        2.8542230909        2.5344017380
 H         -4.8536412210        4.0156461106        1.6766909574
 H         -5.7485522908        1.6565825905        1.7612089979
 H         -5.6175945405        2.3287992700        0.1244915778
 O         -3.9553680606       -0.0102975094        1.6367015189
 C         -3.1392910305       -1.1174551993        1.4861744495
 O         -3.0037994607       -1.7955542490        2.5239580897
 O         -2.2936805597       -0.6952253004       -2.0166368005
 C         -1.7009913000       -2.6242243896        0.1659310503
 C         -0.2555565801       -2.2537986494        0.3770039005
 C          0.4847763397       -2.7983621990        1.4188304509
 C          1.7993775196       -2.4148221488        1.6227376211
 C          2.3999394897       -1.4834674890        0.7946823709
 C          1.6656910599       -0.9288170594       -0.2457030895
 C          0.3512706700       -1.3180519696       -0.4506590996
 H         -0.2177610599       -0.8848772800       -1.2605790499
 N          2.2656781800        0.0268788703       -1.0905133096
 S          2.8602542097        1.4106055206       -0.3406011899
 O          2.1483249194        1.6913186110        0.8858643598
 O          2.8304809999        2.4423012603       -1.3541503903
 C          4.5544661197        0.9933553509        0.0137488506
 C          5.3730483300        0.6522266906       -1.0452406091
 C          6.6935152999        0.3190180108       -0.7897213487
 C          7.1707244896        0.3344263713        0.5126434514
 C          6.3372587493        0.6832042216        1.5643418511
 C          5.0147896394        1.0169179414        1.3155483407
 H          4.3278398491        1.2887019716        2.1012274105
 H          6.7100844391        0.6951040119        2.5759274912
 H          8.1984904796        0.0731265915        0.7093556118
 H          7.3448291501        0.0477078206       -1.6048100884
 H          4.9626251102        0.6572851203       -2.0411698992
 H          1.6728060202        0.2861722600       -1.8672652298
 H          3.4220019296       -1.1788702589        0.9507222010
 H          2.3620919695       -2.8443506185        2.4374198513
 H          0.0165986896       -3.5111808988        2.0819105710
 H         -2.0151277702       -3.2367799194        1.0250613404
 C         -1.9448833796       -3.4456732301       -1.0942785095
 C         -0.8967533794       -3.7196251303       -2.1275282192
 C         -1.3456244895       -4.8160881700       -1.2124656689
 H         -1.9518165493       -5.6148112702       -1.6119651388
 H         -0.6642225596       -5.1241686097       -0.4336319986
 H         -1.2104222791       -3.7414168207       -3.1601926192
 H          0.0897111505       -3.3085171502       -1.9819092391
 H         -2.9581255996       -3.3275396603       -1.4639370698
