  62
        -98.94640711
 C         -1.6344539752       -1.3927619196       -0.0631530549
 C         -2.6856235453       -0.8693016263        0.7241973141
 C         -3.2821909487        0.3815201339        0.2406942760
 C         -2.8169643932        0.9511209103       -0.8864687839
 C         -3.3319523409        2.2197937358       -1.5121279141
 C         -2.7466723258        3.5044182877       -0.9088486840
 C         -3.2503728603        3.8574635224        0.4908754848
 H         -2.9298335559        4.8802326951        0.6992271900
 H         -4.3406691126        3.8505773413        0.4988592359
 C         -2.7196506052        2.9388370369        1.6005072883
 H         -2.3752667819        3.5436000899        2.4427971909
 H         -1.8533836155        2.3844627140        1.2302931957
 C         -3.7474297984        1.9455510460        2.1427639155
 H         -3.2596000460        1.3217264274        2.8965611431
 H         -4.5587994607        2.4889093002        2.6320320495
 C         -4.3497002297        1.0196554188        1.0776974167
 H         -4.8943815477        0.2212119112        1.5877106332
 H         -5.0476926930        1.5729282996        0.4498154585
 H         -3.0029260253        4.3264245004       -1.5811733985
 H         -1.6579472305        3.4200031085       -0.8848495010
 H         -3.0572168163        2.1784019331       -2.5682237179
 H         -4.4195613970        2.2479887634       -1.4390942763
 O         -1.8104821179        0.4090273802       -1.6216257561
 C         -1.1831846698       -0.7642105421       -1.2252708296
 O         -0.2636932966       -1.1355070313       -1.9746903060
 H          0.1408622179       -0.5168041228        1.5578373461
 C          0.9143494768       -1.1837427398        1.1958380906
 C          0.5477215469       -2.3679251524        0.5675960250
 C          1.5534683674       -3.2136488750        0.1196422743
 C          2.8851217869       -2.8682774257        0.2791040316
 C          3.2437147188       -1.6777327788        0.8834604300
 C          2.2449023798       -0.8299205781        1.3448708626
 N          2.5942978300        0.3991126473        1.9444970092
 S          3.4772582307        1.4546600658        0.9843695805
 O          4.8384593876        0.9874911166        0.9101309160
 O          3.2837956015        2.7585990873        1.5787788438
 C          2.7185949301        1.3835172632       -0.6264735683
 C          3.2468147906        0.5490682585       -1.5899787011
 C          2.6160732856        0.4640725578       -2.8200158097
 C          1.4767589758        1.2124630078       -3.0652749224
 C          0.9624292523        2.0511384066       -2.0895732416
 C          1.5810351101        2.1322227682       -0.8534904028
 H          1.2102266667        2.7727486018       -0.0676164380
 H          0.0728047354        2.6274524751       -2.2886704646
 H          0.9796836967        1.1371386716       -4.0190666046
 H          3.0079824969       -0.1924335695       -3.5797458471
 H          4.1384994053       -0.0117159301       -1.3629357477
 H          1.7985823941        0.8879222926        2.3302194778
 H          4.2746218627       -1.3836346393        0.9975247801
 H          3.6551901792       -3.5337057673       -0.0802634918
 H          1.2956727428       -4.1406118751       -0.3654824241
 C         -0.9235242642       -2.6541527032        0.3912387387
 H         -1.3516396097       -2.8978505176        1.3752527955
 C         -1.2071069659       -3.7978374136       -0.5597420450
 C         -1.2290414642       -5.2111431906       -0.0612095167
 C         -2.5087681938       -4.5302986603       -0.4404639090
 H         -3.0123143240       -4.8392469346       -1.3441477800
 H         -3.1796354469       -4.2221940593        0.3483123343
 H         -1.0353337763       -5.3756368267        0.9880100404
 H         -0.8555039223       -5.9918056390       -0.7066260245
 H         -0.8275205247       -3.6102485534       -1.5577790469
 O         -3.0998485678       -1.4146603304        1.7834315291
