  62
        -98.94523576
 C         -2.4501926644       -1.2053168735       -0.0807835548
 C         -3.5250347332       -0.8206561311        0.7609467374
 C         -4.4106049803        0.2246595993        0.2389710686
 C         -4.1722096709        0.7553876027       -0.9740792496
 C         -4.9934016620        1.8182612749       -1.6522176617
 C         -4.6363624893        3.2489036981       -1.2259158285
 C         -5.0883937687        3.6404944841        0.1815424757
 H         -4.9714286059        4.7227857373        0.2651091355
 H         -6.1496784345        3.4177212967        0.2959331319
 C         -4.2943169592        2.9701849207        1.3114836223
 H         -3.3588311799        2.5702891447        0.9123260994
 H         -4.0261270504        3.7182208824        2.0609732158
 C         -5.0434490389        1.8515380712        2.0357532781
 H         -4.3752284826        1.4235733279        2.7871597311
 H         -5.9108884509        2.2670780409        2.5531614276
 C         -5.5185712828        0.7145181444        1.1218155804
 H         -6.3662441448        1.0433040349        0.5212469313
 H         -5.8361810714       -0.1207562263        1.7505909963
 H         -3.5547102693        3.3790611480       -1.3112933420
 H         -5.1094096815        3.9284339373       -1.9386665429
 H         -6.0526326953        1.6360346140       -1.4685447137
 H         -4.8037311311        1.7211505543       -2.7233832033
 O         -3.1337046231        0.3563478591       -1.7546955758
 C         -2.2378908659       -0.6136079725       -1.3259064259
 O         -1.3296617223       -0.8553776780       -2.1454660592
 O         -3.7362810242       -1.3326868598        1.8918097590
 C         -1.4890392629       -2.2643309944        0.4353973430
 C         -0.1720886127       -1.5926584422        0.7351407944
 C         -0.0045068486       -0.9340129264        1.9503750185
 C          1.1630184079       -0.2477683270        2.2259477563
 C          2.1833506182       -0.1926911582        1.2918879425
 C          2.0175111888       -0.8293352415        0.0699503247
 C          0.8542866071       -1.5403236519       -0.1948279712
 H          0.7343913258       -2.0193010675       -1.1536328357
 N          3.0402817406       -0.7639109547       -0.8928541365
 S          3.7058761308        0.7409075734       -1.2298371434
 O          2.7713106495        1.8136977303       -0.9777544594
 O          4.2194640019        0.6357070661       -2.5784164400
 C          5.0804453141        0.8486027523       -0.1007161071
 C          5.2070742784        1.9437020464        0.7312228243
 C          6.2894650410        2.0079944294        1.5951881345
 C          7.2216550882        0.9819650279        1.6111023885
 C          7.0821961217       -0.1094775738        0.7666303538
 C          6.0032492575       -0.1791949477       -0.0999587371
 H          5.8596187246       -1.0071946490       -0.7737010442
 H          7.8093300844       -0.9052922747        0.7814298557
 H          8.0619295186        1.0335905622        2.2853174280
 H          6.3995327548        2.8563657642        2.2514690316
 H          4.4542298584        2.7148850819        0.6882890878
 H          2.8070496205       -1.2429045260       -1.7513384321
 H          3.0915215469        0.3512564225        1.4939441666
 H          1.2806074213        0.2535880134        3.1746308272
 H         -0.8105681962       -0.9562752825        2.6704952313
 H         -1.9213355585       -2.6067417984        1.3851833927
 C         -1.3773763615       -3.4479377233       -0.5019202038
 C         -0.7596787707       -4.7190251369       -0.0030462523
 C         -2.2340305223       -4.6533794964       -0.2618770191
 H         -2.6329786607       -5.1786153737       -1.1167470141
 H         -2.9023634325       -4.6301767309        0.5862602240
 H         -0.1438908346       -5.2934491295       -0.6780033969
 H         -0.4256264968       -4.7385656889        1.0231761839
 H         -1.2012747483       -3.1673459128       -1.5331855651
