  62
        -98.94396467
 C         -2.0852789394       -1.3082762905        0.2511003203
 C         -2.2284231800       -0.5626296498       -0.9440957992
 C         -3.0644039102        0.6449902399       -0.8550668382
 C         -3.6295931099        0.9800130591        0.3184385822
 C         -4.4427737601        2.2178979688        0.5604987232
 C         -3.5558984902        3.3825434587        1.0238668736
 C         -2.3169454506        3.5959448495        0.1543851333
 H         -1.7745119306        4.4522052093        0.5611835437
 H         -1.6667454503        2.7227485696        0.2453257026
 C         -2.6166310611        3.8406510803       -1.3309355764
 H         -2.0081718014        4.6777597307       -1.6797494761
 H         -3.6617849212        4.1252096302       -1.4574781659
 C         -2.3035261311        2.6517317209       -2.2410633273
 H         -1.2810948310        2.3097359011       -2.0588116778
 H         -2.3508811615        2.9947766216       -3.2781812670
 C         -3.2470242308        1.4490211406       -2.1123685277
 H         -4.2820055209        1.7832163805       -2.2078324672
 H         -3.0295885209        0.7673716012       -2.9399879482
 H         -4.1575694604        4.2929932885        1.0335776643
 H         -3.2273344999        3.1811348981        2.0459898634
 H         -4.9665607105        2.4878232092       -0.3545082065
 H         -5.1771979998        2.0001572081        1.3375958433
 O         -3.4753622594        0.2403697584        1.4446032617
 C         -2.7097742491       -0.9115817714        1.4398514307
 O         -2.6633150886       -1.4950587621        2.5402924203
 H          0.3231852500       -1.3826635689       -1.4728076106
 C          0.8732400004       -1.6682077394       -0.5885891309
 C          0.2063497209       -2.2993961201        0.4516500789
 C          0.9247123413       -2.6391753507        1.5921110485
 C          2.2792243613       -2.3671533704        1.6797152582
 C          2.9418638308       -1.7413308696        0.6390596084
 C          2.2272672503       -1.3810943791       -0.4965090212
 N          2.8769310199       -0.7104789883       -1.5466595310
 S          3.9218688597        0.5308914217       -1.1455779406
 O          3.8798273291        1.4463148423       -2.2640308400
 O          5.2194190299       -0.0157005882       -0.8332664813
 C          3.2364188300        1.2961745806        0.3154684001
 C          1.9391413999        1.7673117604        0.2707100508
 C          1.3998813001        2.3508598195        1.4053770114
 C          2.1615910405        2.4545513090        2.5592204512
 C          3.4639749206        1.9817492093        2.5868569405
 C          4.0078930404        1.3952306101        1.4554871799
 H          5.0142610104        1.0097170703        1.4335280194
 H          4.0542186909        2.0647085089        3.4850891803
 H          1.7335805407        2.9065978084        3.4400331116
 H          0.3859681900        2.7181474393        1.3879062219
 H          1.3670294696        1.6739474808       -0.6394289090
 H          2.2583901696       -0.4457466380       -2.2995125406
 H          3.9975019208       -1.5279131794        0.6876830582
 H          2.8254001916       -2.6431336008        2.5686391779
 H          0.4109727917       -3.1102198313        2.4173684784
 C         -1.2719304291       -2.5914688504        0.3488943292
 H         -1.5843314087       -3.0650651510        1.2888144590
 C         -1.5542356693       -3.5565745098       -0.7870048613
 C         -1.2532599389       -5.0110839898       -0.5947856923
 C         -2.6751610190       -4.5403010901       -0.6505221915
 H         -3.2649489692       -4.7739850197       -1.5242260115
 H         -3.2441873487       -4.5254307308        0.2679486087
 H         -0.8592672385       -5.3186391503        0.3620414574
 H         -0.8631596490       -5.5708800092       -1.4309539627
 H         -1.3839722797       -3.1324827291       -1.7675902811
 O         -1.6945286603       -0.8624390990       -2.0469214496
