  62
        -98.93909441
 C          1.9505071826        1.0773119768        0.1056203580
 C          2.1190243896       -0.1633215392        0.7728152106
 C          3.1548621356       -1.0574841285        0.2423172495
 C          3.8506169612       -0.6785896028       -0.8450421595
 C          4.9716812764       -1.4617763998       -1.4630863701
 C          6.3267426046       -1.0529837210       -0.8689357164
 C          6.3470301873       -1.0249154626        0.6594064111
 H          7.3598155851       -0.7549652049        0.9665185770
 H          5.6831912034       -0.2313587689        1.0102888281
 C          5.9470819449       -2.3497513213        1.3238319051
 H          6.0242698018       -3.1639215206        0.6023844394
 H          6.6520187275       -2.5636082323        2.1300659177
 C          4.5482137063       -2.3520529944        1.9432686736
 H          4.4363297286       -1.4830837674        2.5967922883
 H          4.4553231180       -3.2445159235        2.5679863459
 C          3.3776602065       -2.3634746823        0.9517747869
 H          3.5123578096       -3.1746245129        0.2334985667
 H          2.4635735761       -2.5544177626        1.5212587131
 H          7.0870075280       -1.7470179776       -1.2319298667
 H          6.5774769262       -0.0538839755       -1.2329526351
 H          4.7983222264       -2.5239588708       -1.3020694136
 H          4.9807456106       -1.2621274213       -2.5358615988
 O          3.6368740383        0.4981204658       -1.4824997722
 C          2.6888905075        1.4108222022       -1.0309794569
 O          2.6205239399        2.4407339879       -1.7244766586
 H         -1.3963920378        1.3913652712        1.9434065419
 C         -1.5278836810        1.4316844288        0.8708414041
 C         -0.4435156145        1.7371894474        0.0625894790
 C         -0.6210656812        1.7508026825       -1.3176904335
 C         -1.8639680219        1.4906897737       -1.8656839306
 C         -2.9481589340        1.1990434204       -1.0555373619
 C         -2.7747062361        1.1577503228        0.3214538703
 N         -3.8593946442        0.8398978219        1.1516037233
 S         -4.9421170625       -0.3357225138        0.6633452157
 O         -5.8884991934        0.2328400483       -0.2639986701
 O         -5.5010753255       -0.8602385348        1.8891430623
 C         -3.9712337112       -1.5846118455       -0.1640951249
 C         -2.8812898038       -2.1200452456        0.4930162068
 C         -2.1207943274       -3.0849784788       -0.1469966735
 C         -2.4637706401       -3.5001165193       -1.4247065730
 C         -3.5652385652       -2.9581597614       -2.0685285939
 C         -4.3265424657       -1.9892435427       -1.4349561229
 H         -5.1864938203       -1.5364002353       -1.9014777289
 H         -3.8305243649       -3.2842963988       -3.0612958368
 H         -1.8673976720       -4.2503881337       -1.9195075595
 H         -1.2607836081       -3.5019547451        0.3523641682
 H         -2.6328499995       -1.7836497119        1.4868692235
 H         -3.6254371436        0.7499650860        2.1290880805
 H         -3.9242396496        1.0079384649       -1.4708655305
 H         -1.9919354074        1.5151013633       -2.9372022211
 H          0.2246983865        1.9716299936       -1.9515132448
 C          0.9026341930        2.0130445145        0.6818745643
 H          0.8357901453        1.7320319295        1.7451799080
 C          1.2996860141        3.4813210126        0.6312393019
 C          0.6132822231        4.5030883699       -0.2193584412
 C          0.4130741666        4.5130418863        1.2645584912
 H          0.8662358883        5.3008216067        1.8470560163
 H         -0.5442355386        4.1811808567        1.6385061091
 H          1.2263706306        5.2691491563       -0.6688398215
 H         -0.2086631013        4.1861782917       -0.8413011600
 H          2.3684297408        3.6146292655        0.7642012422
 O          1.4342519147       -0.5006069205        1.7764642419
