  62
        -98.94802158
 C         -1.2740550754        1.0366827344        0.0010312229
 C         -1.6268383112       -0.0619664471       -0.8178499287
 C         -2.6736906214       -0.9472449753       -0.2935040507
 C         -3.1785135478       -0.7122217490        0.9313817561
 C         -4.2782189734       -1.5077276460        1.5718628959
 C         -5.6563041857       -0.9121338490        1.2507400881
 C         -5.8741478469       -0.6253581454       -0.2348677034
 H         -6.8887735830       -0.2369568301       -0.3453484412
 H         -5.1900138932        0.1663945810       -0.5482829264
 C         -5.6908214789       -1.8443105134       -1.1496655044
 H         -6.5121341058       -1.8696340898       -1.8688840369
 H         -5.7467853441       -2.7609433594       -0.5614095765
 C         -4.3916698538       -1.8404617696       -1.9572550290
 H         -4.4622250481       -2.6216957938       -2.7187387064
 H         -4.2868896531       -0.8846427366       -2.4766533166
 C         -3.1079522170       -2.0975289074       -1.1575305241
 H         -3.2182789363       -3.0058069337       -0.5608384355
 H         -2.2952300618       -2.2587479592       -1.8722752568
 H         -5.7632664793        0.0258175220        1.8004622670
 H         -6.4218340192       -1.6040501355        1.6065739536
 H         -4.2236914573       -2.5376347488        1.2237407930
 H         -4.1270612506       -1.4929652642        2.6527250553
 O         -2.7702363291        0.3166493512        1.7170505073
 C         -1.8097801762        1.2161144082        1.2759124392
 O         -1.5270642650        2.1088790972        2.0974295383
 H          0.8289950052       -0.1918310848        0.6118037869
 C          1.4253363452        0.6778439762        0.8399856069
 C          1.0178598126        1.9263049733        0.3911471894
 C          1.7853511641        3.0333847040        0.7313607904
 C          2.9201677584        2.8840901227        1.5100563446
 C          3.3313950361        1.6351473513        1.9392218499
 C          2.5737950878        0.5206375939        1.5979610513
 N          2.9515339606       -0.7705452459        1.9965636105
 S          2.6956945655       -2.0532462604        0.9527868772
 O          1.3037059735       -2.4286384378        0.9451492949
 O          3.6181529892       -3.0706970052        1.4116734249
 C          3.2145690862       -1.4482897593       -0.6438002148
 C          4.5693482247       -1.2427045641       -0.8260429444
 C          5.0164979046       -0.7223471039       -2.0286137040
 C          4.1039595982       -0.4103294376       -3.0254940877
 C          2.7497549971       -0.6283480505       -2.8300307365
 C          2.2957001387       -1.1529166265       -1.6293779099
 H          1.2438175909       -1.3235351168       -1.4601350011
 H          2.0315552740       -0.3895506089       -3.5983911784
 H          4.4489648420        0.0019467640       -3.9605769383
 H          6.0705309853       -0.5584383811       -2.1843864530
 H          5.2471185296       -1.5084311714       -0.0311127866
 H          3.8478789833       -0.8309009196        2.4565379011
 H          4.2211358954        1.5212652508        2.5390154194
 H          3.5003937912        3.7537950182        1.7781260442
 H          1.4908719469        4.0135803672        0.3942083484
 C         -0.2094699147        2.0016205340       -0.4844960334
 H          0.0768526117        1.6379416894       -1.4838206680
 C         -0.7713253458        3.4015321070       -0.6198339482
 C         -0.2531517158        4.3262540125       -1.6795626529
 C         -1.6194303739        3.7260740741       -1.8121152389
 H         -2.4815430563        4.3612902069       -1.6745097009
 H         -1.7672631781        2.9434740655       -2.5421865135
 H         -0.1787612184        5.3792006340       -1.4531699335
 H          0.5257108346        3.9565288551       -2.3290730398
 H         -1.0660848784        3.8243445085        0.3338560813
 O         -1.0872262410       -0.2915307681       -1.9347142678
