  62
        -98.93567896
 C         -1.3805650506       -1.5393712615        0.1600156742
 C         -2.4381947997       -1.1183871630        1.0012628198
 C         -3.3377222796       -0.0968348132        0.4511762053
 C         -3.0987180255        0.3909686428       -0.7803760443
 C         -3.9458351564        1.4232757198       -1.4671858298
 C         -3.4627069280        2.8522161777       -1.1855351173
 C         -3.1849657391        3.1305840615        0.2911043779
 H         -2.3560865990        2.5013168029        0.6234855327
 H         -2.8580857268        4.1696856665        0.3732096829
 C         -4.3912647274        2.9066491346        1.2135937187
 H         -4.4615939887        3.7451021299        1.9098653824
 H         -5.3103591812        2.8961957387        0.6264303808
 C         -4.3175639931        1.6328391863        2.0570113481
 H         -5.0991923244        1.6847877193        2.8198195472
 H         -3.3572836500        1.5913465038        2.5774956374
 C         -4.5117808163        0.3168075927        1.2935879257
 H         -5.4190747036        0.3750688486        0.6882732786
 H         -4.6444481816       -0.4791197365        2.0325321943
 H         -4.2183884430        3.5495664720       -1.5518050187
 H         -2.5433246654        3.0224721682       -1.7477162308
 H         -3.9009578056        1.2394983794       -2.5419071035
 H         -4.9762523229        1.3081359233       -1.1348390075
 O         -2.0420701105        0.0027090567       -1.5362284330
 C         -1.1652387275       -0.9859907325       -1.1031562362
 O         -0.2682751079       -1.2607729585       -1.9165046965
 O         -2.6281389267       -1.5893709873        2.1566632371
 C         -0.4882894847       -2.6695085807        0.6619458874
 C          0.9579704037       -2.3286335005        0.4081132212
 C          1.8333470835       -2.9465147455       -0.4744968615
 C          3.1398889011       -2.5035647745       -0.6034641628
 C          3.6084159865       -1.4288196121        0.1260221022
 C          2.7368951686       -0.7804403451        0.9918211773
 C          1.4382752259       -1.2385757189        1.1326611766
 H          0.7667106785       -0.7283395174        1.8131153879
 N          3.1864612970        0.3456173896        1.7149555860
 S          3.7254640883        1.6453795272        0.8028164670
 O          4.9723866885        1.2918182355        0.1743285451
 O          3.7672490236        2.7624439660        1.7191551447
 C          2.4612523896        1.9025340714       -0.4269179845
 C          2.5013743168        1.1879618921       -1.6074164896
 C          1.4695249508        1.3425531536       -2.5185836215
 C          0.4262772087        2.2106049142       -2.2392933732
 C          0.4055539429        2.9289264198       -1.0538222321
 C          1.4262275597        2.7668063313       -0.1319396747
 H          1.4461958136        3.3055417942        0.8022121398
 H         -0.4028352263        3.6099449741       -0.8400105293
 H         -0.3768097702        2.3196782788       -2.9513364771
 H          1.4738919788        0.7747342626       -3.4343127228
 H          3.3314713672        0.5279014872       -1.7967439389
 H          2.5137164438        0.6736038471        2.3938966175
 H          4.6183682520       -1.0661870089        0.0237900586
 H          3.8014734377       -3.0052780920       -1.2935417501
 H          1.5119958762       -3.7617914870       -1.0954360797
 H         -0.6217306650       -2.6561070197        1.7569549167
 C         -1.0970190196       -3.9893160203        0.2086116934
 C         -0.9729872230       -4.5743848330       -1.1634952409
 C         -0.3573434477       -5.2770570445        0.0120018364
 H         -0.8323141441       -6.1828451626        0.3596277968
 H          0.7141498258       -5.2818376596        0.1248021088
 H         -1.8594257080       -5.0060502292       -1.6064262364
 H         -0.3481524440       -4.0644283932       -1.8788002148
 H         -2.0821095769       -4.0832793734        0.6612569897
