  62
        -98.94182808
 C         -2.3780687096       -1.0806624814        0.1317263917
 C         -3.6323179000       -0.9279720320        0.7808676069
 C         -4.5969136628       -0.0329201389        0.1341737582
 C         -4.2588108576        0.5984959624       -1.0041129764
 C         -5.1374020281        1.5275749562       -1.7970943611
 C         -5.1386151160        2.9744355780       -1.2849483145
 C         -5.8912441166        3.1996029919        0.0271104091
 H         -5.9987935450        4.2788058687        0.1527212691
 H         -6.8943591821        2.7798457162       -0.0543929145
 C         -5.1894706129        2.6262107883        1.2662170642
 H         -5.1999828825        3.3692073432        2.0668808933
 H         -4.1413969484        2.4258167131        1.0308343316
 C         -5.8253820653        1.3520915007        1.8223971181
 H         -6.8317072522        1.5731398636        2.1847719154
 H         -5.2276515781        1.0138544077        2.6725217092
 C         -5.9119495390        0.1975008711        0.8157619446
 H         -6.1687120200       -0.7138984378        1.3611716303
 H         -6.6910703483        0.3969099910        0.0803299942
 H         -5.6036470631        3.5922653085       -2.0567227783
 H         -4.1034125946        3.3060244755       -1.1737775870
 H         -6.1580937658        1.1440465248       -1.8105487552
 H         -4.7506736948        1.5246801797       -2.8185720677
 O         -3.0436858916        0.4404501367       -1.5896033561
 C         -2.0664839964       -0.3813641785       -1.0360750857
 O         -1.0057749060       -0.3931853129       -1.6890487218
 O         -3.9324032335       -1.5172791922        1.8524482407
 C         -1.3612490566       -1.9868929281        0.8057507469
 C         -0.0546253245       -1.2557692391        0.9717401143
 C          0.0912170755       -0.3423084896        2.0115051338
 C          1.2613822841        0.3784783442        2.1576819992
 C          2.3048900539        0.2127972307        1.2635556059
 C          2.1596320379       -0.6792182844        0.2101089675
 C          0.9940034455       -1.4234073613        0.0821910511
 H          0.8863989682       -2.1062431311       -0.7461249482
 N          3.2055178984       -0.8474351556       -0.7118356419
 S          4.0221119342        0.5047492982       -1.2765397807
 O          3.1970827578        1.6901545222       -1.2685786116
 O          4.5664129967        0.1057875069       -2.5566603884
 C          5.3645070636        0.6881360541       -0.1179407836
 C          6.1678255057       -0.4082768060        0.1279096389
 C          7.2218452169       -0.2801626659        1.0181524559
 C          7.4564458370        0.9361586693        1.6420187640
 C          6.6439211510        2.0288166555        1.3817920684
 C          5.5870402291        1.9065909317        0.4929035686
 H          4.9261261723        2.7276735781        0.2637104525
 H          6.8276878131        2.9740899379        1.8668431257
 H          8.2773389252        1.0333827249        2.3348189130
 H          7.8558326403       -1.1277678398        1.2229214290
 H          5.9539730025       -1.3339356288       -0.3795631888
 H          2.9688355098       -1.4636363056       -1.4762347892
 H          3.2139275165        0.7832756470        1.3616238426
 H          1.3627432220        1.0802072352        2.9716832000
 H         -0.7305942116       -0.1971024257        2.6992396251
 H         -1.7829218668       -2.1635090615        1.8084472499
 C         -1.1977501059       -3.3558345430        0.1621657290
 C         -2.3916475552       -4.0938903691       -0.3634273624
 C         -1.3392995322       -3.6013467593       -1.3088690035
 H         -0.6842869663       -4.3281666264       -1.7677029322
 H         -1.5679305369       -2.7614400226       -1.9458993456
 H         -2.4663835339       -5.1551021815       -0.1805146270
 H         -3.3403950271       -3.5775051774       -0.3445969976
 H         -0.4516640153       -3.9514501955        0.6798969104
