  62
        -98.93426331
 C         -2.1033090298       -1.2678296659       -0.0919732777
 C         -2.4315560804       -0.0032915606       -0.6343075461
 C         -3.8361414132        0.4405796654       -0.4867566850
 C         -4.7129473668       -0.3604881886        0.1445213221
 C         -6.1672667400       -0.1069155308        0.4396202057
 C         -6.3707596372        0.8701625134        1.6089689946
 C         -5.4603435034        2.0953544955        1.5892634873
 H         -5.6226099043        2.6448496509        2.5203460459
 H         -4.4185010451        1.7693116677        1.5843345674
 C         -5.6948598592        3.0615291371        0.4305565677
 H         -6.7264670303        3.4191654583        0.4654359496
 H         -5.0398405473        3.9222593034        0.5885954242
 C         -5.4203862987        2.5076605181       -0.9690444528
 H         -5.3945386474        3.3589690623       -1.6557654831
 H         -6.2323613636        1.8674342667       -1.3034193578
 C         -4.0835034590        1.7883971439       -1.1206519692
 H         -3.8817467069        1.6537244772       -2.1905624262
 H         -3.2814530277        2.4421519311       -0.7586842891
 H         -7.4143490368        1.1891180442        1.6148960129
 H         -6.1780356055        0.3285310592        2.5382587059
 H         -6.6742560776        0.2454525168       -0.4536786513
 H         -6.6044264579       -1.0701699720        0.7120353607
 O         -4.3461026895       -1.5651653844        0.6683757480
 C         -3.0532940958       -2.0397203367        0.5816379252
 O         -2.8727583067       -3.1427992589        1.1352897329
 H          1.1572009312       -0.4845822907       -1.6802595057
 C          1.1831934725       -0.1992520642       -0.6403809131
 C          0.3026939556       -0.7824386429        0.2564224817
 C          0.3372264246       -0.3726252720        1.5862805222
 C          1.2187219633        0.6069227994        2.0025749978
 C          2.0868623297        1.1978132275        1.1016404841
 C          2.0618908511        0.7939627676       -0.2264830927
 N          2.9379545538        1.3908908663       -1.1459209419
 S          4.5261972550        1.6450010170       -0.6991973948
 O          4.6251602101        2.8256949101        0.1224596322
 O          5.2677071093        1.6763535472       -1.9403014830
 C          4.9711909935        0.2051694157        0.2567177484
 C          4.9274102507       -1.0262648145       -0.3670087448
 C          5.2353385480       -2.1605356367        0.3658505149
 C          5.5786930771       -2.0451559922        1.7044873125
 C          5.6224189518       -0.8017285179        2.3150758629
 C          5.3142227963        0.3363118535        1.5866669909
 H          5.3352072388        1.3218375988        2.0226593114
 H          5.8919911383       -0.7149414980        3.3553417048
 H          5.8147301907       -2.9304587395        2.2735987422
 H          5.2039967561       -3.1291282806       -0.1068318953
 H          4.6638786557       -1.0801556164       -1.4110525474
 H          2.8566666074        1.0404803266       -2.0881337317
 H          2.7659799661        1.9788134720        1.4028678492
 H          1.2279105078        0.9187205768        3.0360665086
 H         -0.3488454968       -0.8262647921        2.2889775059
 C         -0.6952218189       -1.8372561221       -0.1513400154
 H         -0.6819251798       -2.6268558465        0.6173431596
 C         -0.3478686654       -2.5149752703       -1.4686200841
 C         -1.3928896829       -3.2588902141       -2.2439403341
 C         -0.8069366274       -1.9961651258       -2.7969334421
 H         -0.1319923695       -2.0727499988       -3.6375374895
 H         -1.4144822236       -1.1052819894       -2.8068289497
 H         -1.1223078593       -4.1980175593       -2.7025776330
 H         -2.4054391829       -3.2328485527       -1.8678963052
 H          0.6390592730       -2.9670368376       -1.4379026398
 O         -1.6079339703        0.7444123703       -1.2225382121
