  62
        -98.93800222
 C         -1.6843891357       -1.3972640972       -0.0397242862
 C         -2.8654272353       -1.0632653494        0.6626122475
 C         -3.6642122403        0.0389331671        0.1041429670
 C         -3.2342030805        0.6601736100       -1.0093588047
 C         -3.8903833046        1.8489676071       -1.6525415698
 C         -3.5668948696        3.1286719936       -0.8551139638
 C         -4.7800852827        3.7812348284       -0.1920011178
 H         -4.4062454996        4.5347183754        0.5047967135
 H         -5.3650237808        4.2998300823       -0.9544791724
 C         -5.7217783027        2.8328659346        0.5564375944
 H         -6.3669657937        3.4537079503        1.1816718200
 H         -6.3743263258        2.3253736778       -0.1555449910
 C         -5.0468310350        1.7771462895        1.4417268696
 H         -4.0530836104        2.1080162162        1.7454320627
 H         -5.6374537351        1.6718320441        2.3541550824
 C         -4.9491777214        0.3763876047        0.8087156014
 H         -5.7897231418        0.2264595021        0.1253508974
 H         -5.0355118416       -0.3706803186        1.6035444625
 H         -2.8248066401        2.8809074526       -0.0926518587
 H         -3.1028925029        3.8629570509       -1.5154763957
 H         -3.5005850861        1.9258105410       -2.6677018997
 H         -4.9655615001        1.6919650465       -1.7033376768
 O         -2.0856307519        0.3193324277       -1.6491379141
 C         -1.2860184480       -0.7225846680       -1.1937846385
 O         -0.2745809294       -0.9315322152       -1.8852107447
 O         -3.2344517181       -1.6581745766        1.7121168405
 C         -0.8203095459       -2.5340888235        0.4716666096
 C          0.5969243337       -2.0802115296        0.7246233109
 C          1.6986495696       -2.8935222790        0.4880910321
 C          2.9800011390       -2.4381288488        0.7474064537
 C          3.1948942434       -1.1625356092        1.2348767800
 C          2.1010207877       -0.3384584285        1.4672168402
 C          0.8176706301       -0.8048751908        1.2280991243
 H         -0.0293835266       -0.1574493748        1.4203138299
 N          2.3087522053        0.9737870725        1.9251816668
 S          3.5191141760        1.8660584481        1.1852957950
 O          4.7738298839        1.6075790020        1.8483740122
 O          3.0590021777        3.2371914350        1.2349355524
 C          3.6076944309        1.2877908528       -0.5008420702
 C          4.8224073591        0.8785591833       -1.0131382487
 C          4.8764886542        0.4111603484       -2.3161786449
 C          3.7188627326        0.3509714880       -3.0766122586
 C          2.5065313797        0.7683575145       -2.5493799639
 C          2.4498427174        1.2471692078       -1.2511958103
 H          1.5143360998        1.5710202798       -0.8226309216
 H          1.5971602540        0.6975758563       -3.1239394357
 H          3.7571412835       -0.0269272634       -4.0860800248
 H          5.8174403090        0.0869675574       -2.7307420364
 H          5.6938167468        0.9273150182       -0.3803722920
 H          1.4618044786        1.5165558608        2.0073106411
 H          4.1858773198       -0.7904902734        1.4393379872
 H          3.8242518450       -3.0836413204        0.5608952022
 H          1.5535974742       -3.8870206290        0.0972913216
 H         -1.2624025858       -2.8265240917        1.4364573547
 C         -0.9048988630       -3.7142200362       -0.4762217161
 C         -0.8411477438       -5.1180276148        0.0450387638
 C         -2.1388536981       -4.5642627432       -0.4588590346
 H         -2.5290749127       -4.9281498723       -1.3974648360
 H         -2.9030822707       -4.3109656844        0.2616245744
 H         -0.3409846274       -5.8669295241       -0.5504428617
 H         -0.7302127657       -5.2531905746        1.1103689183
 H         -0.4560146738       -3.5030033920       -1.4403723026
