  62
        -98.93931186
 C         -0.9781253958       -1.5374071893        0.5551972162
 C         -1.9065410487       -1.2980074488       -0.4852030674
 C         -3.0491876702       -0.4186899143       -0.1615001115
 C         -3.1407449809        0.1207901988        1.0653422552
 C         -4.2412468910        0.9550571405        1.6782883931
 C         -5.0306096081        1.9143480193        0.7849747371
 C         -4.1689576009        2.7232188036       -0.1938424466
 H         -4.4068450288        3.7829534632       -0.0852949509
 H         -3.1166048519        2.5943531961        0.0573343294
 C         -4.3868056345        2.3367896481       -1.6571799799
 H         -5.4585106425        2.2361209070       -1.8415680169
 H         -4.0211600295        3.1472674329       -2.2922117640
 C         -3.6803683674        1.0572054708       -2.1000682355
 H         -2.5965403640        1.1959930416       -2.0606819040
 H         -3.9426270518        0.8740726284       -3.1446202189
 C         -4.0256215140       -0.1987015910       -1.2821452596
 H         -5.0513633304       -0.1655135839       -0.9234751020
 H         -3.9199927895       -1.0680549011       -1.9366555984
 H         -5.7925570619        1.3652763469        0.2348965296
 H         -5.5584556834        2.5947660489        1.4562470001
 H         -4.9402701396        0.2643712828        2.1614510507
 H         -3.7587337079        1.5219316142        2.4797650695
 O         -2.1807267224       -0.0838755823        2.0170795620
 C         -1.0981239220       -0.9154547445        1.7979150487
 O         -0.3264950813       -1.0171418513        2.7740905837
 H          2.2100829312       -0.8699792073        0.9616076103
 C          2.1816057977       -1.1008825798       -0.0933011810
 C          1.1994805592       -1.9520449671       -0.5851270002
 C          1.1935104257       -2.2503832327       -1.9425806558
 C          2.1487358628       -1.7050476195       -2.7815207098
 C          3.1215483208       -0.8534664947       -2.2900850587
 C          3.1378022910       -0.5497756344       -0.9336738836
 N          4.1242729035        0.2973486063       -0.4028694399
 S          3.7106819507        1.4071392426        0.7752196468
 O          4.7437442963        2.4174445306        0.6909911860
 O          3.5727193318        0.7547790810        2.0514901120
 C          2.1556616545        2.0896945939        0.2332133598
 C          2.1571512104        2.8604555262       -0.9137044573
 C          0.9598882932        3.3785077176       -1.3772774205
 C         -0.2153723486        3.1203151468       -0.6878559835
 C         -0.1975867998        2.3506628567        0.4638618243
 C          0.9963075282        1.8241588344        0.9303820538
 H          1.0335947020        1.2127287784        1.8190398346
 H         -1.1056616931        2.1461148824        1.0092817909
 H         -1.1493003247        3.5236010765       -1.0477012124
 H          0.9431449208        3.9805523694       -2.2713092730
 H          3.0925746302        3.0545750742       -1.4128632320
 H          4.7458764932        0.6999419945       -1.0891412530
 H          3.8677312992       -0.4316026727       -2.9457708684
 H          2.1331263047       -1.9439504448       -3.8339298168
 H          0.4280187098       -2.8932842629       -2.3427981745
 C          0.1813901170       -2.5064037469        0.3818276066
 H          0.6629817332       -2.5667550620        1.3677971026
 C         -0.3114395814       -3.8888041326        0.0013329513
 C          0.6013084893       -5.0640519817        0.1722800854
 C         -0.5778114772       -4.8916904234        1.0812156878
 H         -1.4191464399       -5.5591596098        0.9688537408
 H         -0.3972497338       -4.5872606136        2.1023114837
 H          1.5844585517       -4.8758031253        0.5771870661
 H          0.5717688281       -5.8529726409       -0.5634044002
 H         -0.9848489613       -3.8883866374       -0.8459914027
 O         -1.8229502950       -1.8163185943       -1.6271983620
