  62
        -98.93611085
 C         -2.2316153067       -0.7826490391        0.1353281453
 C         -3.4221764952       -0.9343065705        0.8910918726
 C         -4.3857946956        0.1792468529        0.8612498325
 C         -4.0856278852        1.2891174220        0.1622199285
 C         -4.8381394819        2.5914785236       -0.0148483190
 C         -6.3074309988        2.7051547438        0.3833065992
 C         -7.2683389564        1.8844186421       -0.4763674058
 H         -8.2669508322        1.9617212694       -0.0410055680
 H         -7.3055639877        2.3277293073       -1.4747342009
 C         -6.9106724701        0.4094017363       -0.6409548643
 H         -7.6708497100       -0.0494300349       -1.2789797213
 H         -5.9563444158        0.3203166381       -1.1643520986
 C         -6.8444681078       -0.3960691038        0.6551808624
 H         -6.7421950984       -1.4500844464        0.3828154236
 H         -7.7802075915       -0.2833960714        1.2059938804
 C         -5.6772587360       -0.0450675206        1.5940455403
 H         -5.5084134540       -0.8985125262        2.2571118759
 H         -5.9165501946        0.8113946569        2.2197873373
 H         -6.5794915044        3.7579467990        0.2682435986
 H         -6.4324618140        2.4616300268        1.4342430860
 H         -4.2676928433        3.3404471295        0.5458709488
 H         -4.7320146941        2.8550620062       -1.0721725094
 O         -2.9064937500        1.4104851534       -0.5131983668
 C         -1.9589842339        0.3963725139       -0.5584131064
 O         -0.9590521359        0.6854575009       -1.2423771558
 O         -3.6714161402       -1.9629432591        1.5741122160
 C         -1.2381862759       -1.9316901201        0.1707187195
 C          0.1295222238       -1.4145663846        0.5329307828
 C          0.4266581572       -1.1398396316        1.8644813809
 C          1.6568161591       -0.6192457318        2.2188526480
 C          2.6112199740       -0.3509481172        1.2528593380
 C          2.3153155556       -0.6002628433       -0.0800479869
 C          1.0887788455       -1.1498077905       -0.4306240677
 H          0.8641605863       -1.3300968064       -1.4702824854
 N          3.2689760484       -0.3233599054       -1.0724675103
 S          4.1755523918        1.0836164727       -0.9754673736
 O          3.4711106566        2.1493336208       -0.3015430460
 O          4.5992613323        1.3489278414       -2.3334933129
 C          5.5969211406        0.5906952021       -0.0190371833
 C          5.9795505989        1.3323643960        1.0813424604
 C          7.0937264046        0.9349700978        1.8043287592
 C          7.8034055083       -0.1905295032        1.4151455685
 C          7.4085738631       -0.9228620187        0.3054263209
 C          6.2962985585       -0.5302981567       -0.4216763674
 H          5.9585325707       -1.0699502168       -1.2904706230
 H          7.9629391761       -1.7975461932        0.0055344929
 H          8.6692959376       -0.4982592969        1.9797904953
 H          7.4018635886        1.5038508396        2.6668738075
 H          5.3944759212        2.1977568735        1.3499993048
 H          2.9227328519       -0.4617544567       -2.0109855005
 H          3.5660095188        0.0707844589        1.5206155823
 H          1.8758154678       -0.4151057516        3.2559874191
 H         -0.3249123223       -1.3303758464        2.6182088583
 H         -1.5925573648       -2.5674374088        0.9979699168
 C         -1.2309530946       -2.8081612029       -1.0729737870
 C         -2.5139719372       -3.1483731017       -1.7689138440
 C         -1.4965563867       -2.2870573278       -2.4522246075
 H         -0.9358652549       -2.7118819415       -3.2726197779
 H         -1.7026874625       -1.2344721266       -2.5676378120
 H         -2.6591176039       -4.1575013819       -2.1236756068
 H         -3.4151405961       -2.6784235730       -1.4026763941
 H         -0.4991193361       -3.6064903438       -0.9924985889
