  62
        -98.94440145
 C          1.9615120353       -1.3472360936       -0.0638885780
 C          2.2507868621       -0.3872227184        0.9358669824
 C          3.6276620203        0.1310097576        0.9524125187
 C          4.5193208579       -0.3148804982        0.0499600824
 C          5.9331756448        0.1710832707       -0.0778558280
 C          6.0315170729        1.3448133442       -1.0622999387
 C          5.0073087432        2.4512584266       -0.8094863855
 H          5.1925585530        3.2395179593       -1.5424516041
 H          4.0051483659        2.0620798847       -1.0047885677
 C          5.0524863959        3.0475616574        0.6043453997
 H          4.9939265549        4.1353707623        0.5272316244
 H          6.0053561432        2.8076572084        1.0775950386
 C          3.9076187113        2.6039954378        1.5170016258
 H          3.9119150255        3.2452459593        2.4026395418
 H          2.9531465157        2.7582490202        1.0067359369
 C          3.9671284671        1.1504517067        2.0036719056
 H          4.9495736666        0.9471623067        2.4342761874
 H          3.2164967782        1.0331762607        2.7906354572
 H          5.8784462173        0.9623293512       -2.0741051055
 H          7.0394574806        1.7597852041       -1.0049817994
 H          6.2987442563        0.4733221083        0.9015948611
 H          6.5471316148       -0.6524164650       -0.4464817773
 O          4.2106188027       -1.2412285563       -0.8915080186
 C          2.9359603297       -1.7708490182       -0.9753547537
 O          2.7929005572       -2.6090437959       -1.8874892179
 H         -0.3864125332        0.3730748676        0.6257659892
 C         -0.7909593424        0.0984436537       -0.3371189555
 C         -0.3732113019       -1.0810383053       -0.9372857306
 C         -0.8920458238       -1.4124020513       -2.1832211136
 C         -1.8047056497       -0.5825721563       -2.8117309992
 C         -2.2193165081        0.5918111421       -2.2098964146
 C         -1.7009041477        0.9334446800       -0.9675824857
 N         -2.1323197189        2.1199896928       -0.3376103166
 S         -3.7844477877        2.2155218401       -0.0648048385
 O         -4.4477693155        2.5824370062       -1.2909132654
 O         -3.9473608830        3.1306186936        1.0424208391
 C         -4.2465761075        0.5583687304        0.4060868733
 C         -3.8321319170        0.0952489669        1.6390103951
 C         -4.1126941477       -1.2142783309        1.9917793044
 C         -4.7915885665       -2.0369525214        1.1060238002
 C         -5.2015317310       -1.5565005348       -0.1276678079
 C         -4.9254878277       -0.2466190312       -0.4854715659
 H         -5.2258521790        0.1668751221       -1.4340798794
 H         -5.7302822454       -2.1987231297       -0.8132427046
 H         -5.0028519791       -3.0585835801        1.3800981991
 H         -3.7963654725       -1.5878990851        2.9526221059
 H         -3.3082420410        0.7632875186        2.3041083077
 H         -1.6293655019        2.3098727084        0.5181271164
 H         -2.9345156547        1.2484149433       -2.6786597288
 H         -2.1981060931       -0.8534726938       -3.7795581798
 H         -0.5662549972       -2.3236818142       -2.6633630473
 C          0.5967879451       -1.9988389126       -0.2325328200
 H          0.7663708125       -2.8669485069       -0.8828479385
 C          0.0056760090       -2.4893875695        1.0763080503
 C         -1.0787819370       -3.5217060188        1.0372196435
 C          0.2881520310       -3.8879477438        1.5311344056
 H          0.4278479928       -4.0675190177        2.5866028871
 H          0.9129763861       -4.5026434197        0.8992528287
 H         -1.3831462483       -3.8892919840        0.0691701114
 H         -1.8828164877       -3.4492502570        1.7525915363
 H         -0.0540052695       -1.7225750151        1.8367206055
 O          1.4211749424        0.0344987366        1.7870488321
