  62
        -98.94523484
 C         -2.4486307320       -1.2055834824       -0.0823296226
 C         -3.5232367001       -0.8200429547        0.7593461775
 C         -4.4067310376        0.2275424244        0.2383280359
 C         -4.1664187724        0.7599852979       -0.9735828008
 C         -4.9851069153        1.8253901399       -1.6507772321
 C         -4.6270204045        3.2547468435       -1.2210664374
 C         -5.0808060722        3.6442784178        0.1864019701
 H         -4.9628682243        4.7263048649        0.2720496372
 H         -6.1424872059        3.4223968704        0.2988143533
 C         -4.2890729219        2.9711483692        1.3163029396
 H         -3.3533469139        2.5711350348        0.9178249348
 H         -4.0213764585        3.7175833396        2.0675551813
 C         -5.0403109154        1.8519067317        2.0374444970
 H         -5.9081053470        2.2673494349        2.5543428881
 H         -4.3736145885        1.4218591784        2.7890151513
 C         -5.5152607326        0.7172039244        1.1205935258
 H         -5.8348921930       -0.1188602745        1.7472780033
 H         -6.3615774289        1.0481790449        0.5193081493
 H         -5.0981866849        3.9361707303       -1.9332556202
 H         -3.5450869504        3.3838451648       -1.3045390521
 H         -6.0448929863        1.6441086481       -1.4693134393
 H         -4.7937321269        1.7302431124       -2.7218157215
 O         -3.1280745089        0.3602333392       -1.7540733953
 C         -2.2349179068       -0.6126524335       -1.3266702587
 O         -1.3273210685       -0.8554507707       -2.1466551308
 O         -3.7360297102       -1.3331710876        1.8894140387
 C         -1.4900167569       -2.2673853025        0.4329483696
 C         -0.1717696779       -1.5990889440        0.7345941261
 C         -0.0006966635       -0.9481237649        1.9534396055
 C          1.1680234956       -0.2643658574        2.2303137324
 C          2.1860024081       -0.2040850265        1.2940248645
 C          2.0167958443       -0.8334182984        0.0687495399
 C          0.8526177755       -1.5422512401       -0.1973496037
 H          0.7300553635       -2.0154116917       -1.1586909269
 N          3.0370971504       -0.7624870553       -0.8963108625
 S          3.6991960098        0.7450246051       -1.2281953770
 O          2.7632321930        1.8151066798       -0.9696874470
 O          4.2100401536        0.6466575676       -2.5783443910
 C          5.0754871767        0.8504951911       -0.1009859033
 C          5.9972181719       -0.1782566366       -0.1014940072
 C          7.0769187580       -0.1100287371        0.7642965366
 C          7.2181645825        0.9808233021        1.6092285258
 C          6.2870798952        2.0078833427        1.5944828124
 C          5.2039228202        1.9450711203        0.7313847266
 H          4.4516284269        2.7168342346        0.6895266282
 H          6.3984831722        2.8557972198        2.2511312281
 H          8.0589185727        1.0311533042        2.2829380465
 H          7.8031386465       -0.9066950459        0.7782601846
 H          5.8521582228       -1.0060393960       -0.7752026111
 H          2.8019048001       -1.2371090987       -1.7566934092
 H          3.0949096271        0.3383279697        1.4969708531
 H          1.2883351889        0.2310230249        3.1817783243
 H         -0.8050203765       -0.9740300708        2.6753644398
 H         -1.9237209326       -2.6103765071        1.3818714788
 C         -1.3797752453       -3.4497866845       -0.5061341463
 C         -0.7614262936       -4.7215931762       -0.0098720032
 C         -2.2361120563       -4.6555570867       -0.2666843699
 H         -2.6362525814       -5.1796198501       -1.1217169116
 H         -2.9032596214       -4.6335342019        0.5824166117
 H         -0.1465288948       -5.2949604367       -0.6865391054
 H         -0.4259727516       -4.7426722032        1.0158643335
 H         -1.2048049950       -3.1678536692       -1.5372192228
