  62
        -98.94470758
 C         -1.8066785983       -0.5446627725       -0.4830944638
 C         -2.8626697020       -1.3086833622        0.0695222399
 C         -4.2182658855       -0.8289554209       -0.2199048759
 C         -4.3896753475        0.2621708022       -0.9884006260
 C         -5.7100577980        0.8585233128       -1.3950638945
 C         -6.3157413561        1.8055818958       -0.3500257123
 C         -6.8793492006        1.1229985325        0.8969520842
 H         -7.4605765118        1.8728610330        1.4372931153
 H         -7.5676034066        0.3322485523        0.5968336453
 C         -5.8133194551        0.5499422247        1.8412091425
 H         -4.8425898231        0.9917396725        1.6042493449
 H         -6.0497078248        0.8303654153        2.8701454665
 C         -5.6870692088       -0.9731266760        1.8040118491
 H         -4.8822521751       -1.2672833675        2.4824459847
 H         -6.6131982054       -1.4262910926        2.1643223063
 C         -5.3703008194       -1.5466417407        0.4164697637
 H         -6.2515545554       -1.4947516246       -0.2223753977
 H         -5.0842029138       -2.5944770845        0.5353647863
 H         -5.5552025675        2.5327673054       -0.0560874332
 H         -7.1267594711        2.3519533773       -0.8370989263
 H         -6.4189725968        0.0611444199       -1.6199619337
 H         -5.5250080737        1.4275169989       -2.3087500277
 O         -3.3479115508        0.9587764555       -1.5163350045
 C         -2.0339424789        0.5900823148       -1.2615203387
 O         -1.1834215263        1.3374419570       -1.7811057680
 O         -2.6801051140       -2.3389163255        0.7714654026
 C         -0.3748875316       -0.9741056645       -0.2144043621
 C          0.3655025089        0.1331352920        0.4915794824
 C         -0.1742028730        0.6408342872        1.6720899125
 C          0.4443771232        1.6740066418        2.3464593454
 C          1.6239778065        2.2159195130        1.8657483311
 C          2.1758615400        1.7116806912        0.6948413334
 C          1.5521926698        0.6696039316        0.0188446593
 H          1.9914159926        0.3128931820       -0.8974166810
 N          3.3664411513        2.2467778324        0.1889932805
 S          4.4508990526        1.3187700077       -0.6658021684
 O          5.7046094286        2.0325413719       -0.5401984529
 O          3.9916260096        1.0986986753       -2.0141751095
 C          4.5591741123       -0.2404286821        0.1976263358
 C          4.6112985176       -1.4052681736       -0.5396505146
 C          4.7161610426       -2.6184080247        0.1219381417
 C          4.7662848513       -2.6452718499        1.5066065728
 C          4.7193631195       -1.4661233880        2.2343599822
 C          4.6185856715       -0.2505673322        1.5772468333
 H          4.5848809750        0.6783385410        2.1222716667
 H          4.7598263356       -1.4899417593        3.3114170808
 H          4.8428280908       -3.5900793427        2.0212102433
 H          4.7540519430       -3.5351813990       -0.4443962319
 H          4.5624845105       -1.3374745892       -1.6144557752
 H          3.8172522497        2.9398524053        0.7665334446
 H          2.1061018297        3.0302278518        2.3847049712
 H          0.0088032828        2.0615919715        3.2550220304
 H         -1.0964451364        0.2172094227        2.0457278407
 H         -0.4535482323       -1.8280808721        0.4747318662
 C          0.2843023197       -1.4432371840       -1.4929266402
 C          1.3924525082       -2.4502628701       -1.4428524241
 C          0.0414178511       -2.8481058730       -1.9543900572
 H         -0.0794957139       -3.0300977083       -3.0117626265
 H         -0.5803960471       -3.4727053678       -1.3298483132
 H          2.2000243994       -2.3556267564       -2.1525003379
 H          1.6970879182       -2.8105223568       -0.4719992671
 H          0.3303226172       -0.6689296091       -2.2512019002
