  62
        -98.94860347
 C         -1.4832567349       -1.3991615429        0.1704160330
 C         -0.8660671648       -2.3546785787       -0.6693113853
 C          0.4612934847       -2.8140719542       -0.2454132385
 C          1.0164561870       -2.3126486042        0.8730632618
 C          2.3508096795       -2.7013196884        1.4496027780
 C          3.5429743943       -1.9720326975        0.8172619787
 C          3.9116383124       -2.4247710733       -0.5955956876
 H          4.8915265224       -2.0001609081       -0.8227025523
 H          4.0142329376       -3.5104596430       -0.6173704996
 C          2.9233125008       -1.9797575358       -1.6823707170
 H          2.3087789751       -1.1529537002       -1.3159756935
 H          3.4754630424       -1.5920221187       -2.5422883737
 C          2.0076799443       -3.0881069779       -2.2031817699
 H          1.3161628486       -2.6424314113       -2.9233383623
 H          2.6034950463       -3.8388904350       -2.7283824543
 C          1.1803183435       -3.7945990030       -1.1217799230
 H          0.4260200744       -4.4103764848       -1.6187151191
 H          1.8210455822       -4.4421291525       -0.5229976084
 H          3.3297055392       -0.9010956078        0.8073400569
 H          4.4066624108       -2.1380396495        1.4650959009
 H          2.3150666663       -2.4453447812        2.5104666926
 H          2.4891976842       -3.7789994633        1.3556213814
 O          0.3920214082       -1.3899894102        1.6518601956
 C         -0.8649797347       -0.9065614674        1.3194699193
 O         -1.3170214936       -0.0623590430        2.1150558555
 O         -1.4030790627       -2.8086152615       -1.7168448322
 C         -2.8369928477       -0.8322953072       -0.2137371446
 C         -2.7609218201        0.6728457912       -0.3011677636
 C         -3.7861350393        1.5127164695        0.1161771448
 C         -3.6382127074        2.8870747071        0.0404857003
 C         -2.4670726669        3.4516593396       -0.4304058438
 C         -1.4383446901        2.6187088361       -0.8603017056
 C         -1.6060583660        1.2440555229       -0.8195086695
 H         -0.8067224523        0.6075359321       -1.1676245156
 N         -0.2370960940        3.1634161159       -1.3377652247
 S          1.2415359576        2.4095511447       -1.3045047844
 O          2.1475729583        3.3964313729       -1.8537270370
 O          1.1889650283        1.1522121716       -2.0096743650
 C          1.7254734553        2.1070831295        0.3907123067
 C          3.0662014041        1.8231511200        0.5740827698
 C          3.5359753418        1.5634574677        1.8507494011
 C          2.6571414833        1.5850567174        2.9235068631
 C          1.3175344543        1.8732570441        2.7248850819
 C          0.8422156746        2.1413632601        1.4492149581
 H         -0.2052629167        2.3421400088        1.2937973357
 H          0.6230177649        1.8745530717        3.5492500596
 H          3.0175953652        1.3728179420        3.9176999967
 H          4.5796970953        1.3391993356        2.0034070059
 H          3.7111533629        1.8127352041       -0.2905071702
 H         -0.1453038188        4.1639240791       -1.2488881503
 H         -2.3431450511        4.5231734243       -0.4635624738
 H         -4.4405198388        3.5292915491        0.3703504206
 H         -4.6968805396        1.0919451838        0.5095811423
 H         -3.0518657656       -1.2306561584       -1.2171048698
 C         -3.9062075361       -1.3188577442        0.7438398627
 C         -5.3079954138       -1.5520628690        0.2671232193
 C         -4.4250997078       -2.7167544763        0.5968959571
 H         -4.6312760423       -3.2876746963        1.4897306434
 H         -4.0279152221       -3.3068627849       -0.2162426836
 H         -6.1247234074       -1.3260012428        0.9361153953
 H         -5.5220137396       -1.3599351217       -0.7735043409
 H         -3.7614851382       -0.9416341431        1.7501049238
