  62
        -98.93216667
 C         -2.2296112562       -0.6244577641       -0.4493552630
 C         -3.3954772076       -0.9493471392        0.2923033684
 C         -4.2995473933        0.1614846043        0.6205480571
 C         -3.9698344884        1.4065670275        0.2325163231
 C         -4.8156395026        2.6335936832        0.4215058038
 C         -5.9529906899        2.6538018186       -0.6198195085
 C         -7.3551944338        2.5228668626       -0.0249044520
 H         -7.6385831648        3.4748565204        0.4289621026
 H         -8.0443778441        2.3336003447       -0.8506859397
 C         -7.5324222250        1.4292604989        1.0328788437
 H         -8.6069713041        1.2823290015        1.1608141343
 H         -7.1506588074        1.7811446015        1.9924192699
 C         -6.8851019307        0.0752445599        0.7144094551
 H         -6.7625202571       -0.0493955328       -0.3616879319
 H         -7.5626719713       -0.7124908559        1.0501060044
 C         -5.5341446745       -0.1693638265        1.4126152393
 H         -5.5121520862        0.3679399231        2.3648131379
 H         -5.4445037124       -1.2364427253        1.6365340483
 H         -5.9090072677        3.5837223633       -1.1886426591
 H         -5.7806406096        1.8427192955       -1.3304190508
 H         -5.2200551748        2.6490339011        1.4311184297
 H         -4.1660479239        3.4993651397        0.2917372537
 O         -2.8374128436        1.6828114479       -0.4613780939
 C         -1.9407974840        0.6876139300       -0.8227239265
 O         -0.9597506947        1.1151518476       -1.4627570118
 H          0.8693248469       -0.1225186980       -0.8268777929
 C          0.9328909471       -0.8548075240       -0.0361166745
 C         -0.0988319385       -1.7681347306        0.1281795553
 C         -0.0174050226       -2.6827273855        1.1722918099
 C          1.0699830561       -2.6809940398        2.0280060686
 C          2.0937077303       -1.7652349475        1.8651516810
 C          2.0178176925       -0.8417827677        0.8302324283
 N          3.0340676492        0.1223140476        0.6742645576
 S          4.6273672069       -0.4384594831        0.6898022803
 O          4.7714609163       -1.5623195451       -0.2095370272
 O          5.0117902089       -0.6789433736        2.0583122979
 C          5.4995862872        0.9802092015        0.0580513629
 C          5.8481085643        1.0213324652       -1.2783499701
 C          6.5085035076        2.1388049977       -1.7644402767
 C          6.8042440283        3.1910035615       -0.9110363086
 C          6.4473559030        3.1349861338        0.4281738095
 C          5.7880631526        2.0202617951        0.9209406864
 H          5.4997323905        1.9288859442        1.9550468917
 H          6.6812231533        3.9544452014        1.0884860944
 H          7.3185993894        4.0591768261       -1.2919009983
 H          6.7895754325        2.1842063296       -2.8043366655
 H          5.6056962904        0.1765966797       -1.9032413396
 H          2.8694309674        0.6989760510       -0.1404611736
 H          2.9496077581       -1.7564197234        2.5204490254
 H          1.1221021666       -3.4003529893        2.8315466909
 H         -0.8208688448       -3.3912806030        1.3145741560
 C         -1.2942710240       -1.7718677647       -0.7952678880
 H         -1.8712661173       -2.6821422749       -0.5843422774
 C         -0.8859966661       -1.7914755108       -2.2549013100
 C         -0.2987737689       -3.0467296974       -2.8246872939
 C         -1.6756925574       -2.6132273189       -3.2271497512
 H         -1.8252526248       -2.2275189979       -4.2244277631
 H         -2.5180129117       -3.1704433716       -2.8438192375
 H         -0.2061601744       -3.8967870960       -2.1655716176
 H          0.5007577199       -2.9618777205       -3.5446166618
 H         -0.4966465357       -0.8466250585       -2.6104516715
 O         -3.6696049762       -2.1234533383        0.6591635756
