  62
        -98.94587811
 C         -1.8954205759       -1.2868974193        0.1782713187
 C         -0.7344356031       -1.3702928651        0.9862033530
 C          0.2160160737       -2.4370994035        0.6376434671
 C         -0.0099862249       -3.2043681759       -0.4424015378
 C          0.9133858071       -4.2757216847       -0.9445285750
 C          1.9151141922       -3.7236087031       -1.9678585782
 C          2.6431681256       -2.4570589762       -1.5147937781
 H          3.3601407382       -2.2015565205       -2.2992065677
 H          1.9325054900       -1.6278325515       -1.4610855883
 C          3.3796204105       -2.5892702753       -0.1744367277
 H          3.5383686078       -3.6430817220        0.0589614962
 H          4.3631863131       -2.1251360234       -0.2721554460
 C          2.6796098060       -1.9041157373        0.9998592927
 H          2.4102652059       -0.8851058743        0.7122468133
 H          3.3882298490       -1.8363045117        1.8294950354
 C          1.4184899771       -2.5999415856        1.5241848416
 H          1.6241527700       -3.6572230093        1.7033127638
 H          1.1544481279       -2.1316239947        2.4766949141
 H          2.6460227823       -4.5049870063       -2.1869237304
 H          1.3770586940       -3.4927762701       -2.8904373936
 H          1.4451229518       -4.7124996195       -0.1011878928
 H          0.3112832572       -5.0502176493       -1.4233899216
 O         -1.1088435916       -3.0644130346       -1.2274015109
 C         -2.0700728154       -2.1135725239       -0.9345309677
 O         -3.0369963325       -2.1060568751       -1.7258916129
 H         -0.5877128135        0.9444559434        0.1420098094
 C         -1.3818689237        1.5281630379       -0.2910608293
 C         -2.6850172767        1.0587619453       -0.2422098753
 C         -3.6937408677        1.8349257395       -0.8021023274
 C         -3.3969082177        3.0421128672       -1.4086113004
 C         -2.0890830350        3.4852007410       -1.4931289740
 C         -1.0736595020        2.7167539183       -0.9354893622
 N          0.2641409132        3.1329390925       -1.0013277615
 S          1.5230367673        2.0491125184       -1.2195930884
 O          2.4486158466        2.7223564059       -2.1091532311
 O          1.0520899388        0.7590850157       -1.6672306818
 C          2.3028726283        1.9070704004        0.3763707590
 C          3.6212708999        1.4911054155        0.3882095744
 C          4.2720110672        1.3441025996        1.6019291659
 C          3.5938826992        1.6104849628        2.7816027547
 C          2.2738678434        2.0301879830        2.7531185662
 C          1.6177358792        2.1837663365        1.5409367839
 H          0.5903040296        2.5052368940        1.4994529735
 H          1.7447134106        2.2339289758        3.6700074710
 H          4.0968315283        1.4901149993        3.7281389334
 H          5.2993934295        1.0181595944        1.6232082771
 H          4.1072131072        1.2937882724       -0.5540557965
 H          0.4223791107        3.9752635808       -1.5342747586
 H         -1.8525960031        4.4135170265       -1.9906064833
 H         -4.1887189082        3.6358867446       -1.8393810697
 H         -4.7128052965        1.4795230819       -0.7762598377
 C         -3.0015109710       -0.2703153088        0.4051904619
 H         -3.8891273529       -0.6769863442       -0.1003101471
 C         -3.3371315354       -0.0712786193        1.8721708325
 C         -4.7260680897        0.3226840180        2.2701443299
 C         -4.2265683390       -1.0599585488        2.5617348387
 H         -4.0023685749       -1.3293271950        3.5826404680
 H         -4.6141720913       -1.8773365584        1.9705015618
 H         -5.4631424405        0.4358731533        1.4899830651
 H         -4.8484892336        1.0094844104        3.0933477571
 H         -2.5124103258        0.3353538625        2.4424426344
 O         -0.4794984565       -0.6064248146        1.9550477327
