  62
        -98.93792482
 C         -1.6762254627       -0.9647495317       -0.0216429307
 C         -2.9991060456       -1.2345943203        0.3946903139
 C         -3.9999678715       -0.1806920714        0.1444102513
 C         -3.6048073819        0.9706255649       -0.4285938694
 C         -4.4322739993        2.1779788393       -0.7912382254
 C         -5.4606115096        2.6501177394        0.2481812633
 C         -6.9097953393        2.3949031690       -0.1698572907
 H         -7.5550672230        3.1019981360        0.3562238658
 H         -7.0048430041        2.6005640437       -1.2381155867
 C         -7.4323446515        0.9892256591        0.1215340519
 H         -7.5753484250        0.8725049876        1.1980253771
 H         -8.4146639708        0.8978081456       -0.3479240734
 C         -6.5445735016       -0.1542605365       -0.3735584360
 H         -7.1721572894       -1.0415997517       -0.4809087100
 H         -6.1444566492        0.0724969494       -1.3612028745
 C         -5.4000909057       -0.5053541698        0.5889688836
 H         -5.3889787135       -1.5851360608        0.7675173376
 H         -5.5778288413       -0.0426958504        1.5640924403
 H         -5.2562370250        2.1843036805        1.2108490163
 H         -5.3331237481        3.7261889552        0.3766086341
 H         -3.7060072228        2.9714273699       -0.9813147315
 H         -4.9319326653        1.9803031485       -1.7429694176
 O         -2.3113601917        1.1915869509       -0.8022910451
 C         -1.3214562507        0.2416112303       -0.6212152861
 O         -0.1949100210        0.5889576009       -1.0215092992
 O         -3.3343588684       -2.3135568728        0.9547518074
 C         -0.6072128069       -2.0226718611        0.1805871857
 C          0.5309770734       -1.4640278874        0.9968619691
 C          0.2474869527       -0.8787676477        2.2293608822
 C          1.2557265190       -0.3525399572        3.0122230299
 C          2.5705608250       -0.3912415645        2.5796890483
 C          2.8655206650       -0.9783952001        1.3565009970
 C          1.8503823259       -1.5200769380        0.5777717104
 H          2.1125461982       -1.9629151300       -0.3678473197
 N          4.1946917087       -1.0590473634        0.8980423471
 S          4.6013014992       -0.3860909537       -0.5811346404
 O          3.8410624910       -1.0094148040       -1.6318937532
 O          6.0392135205       -0.5273878164       -0.6623503451
 C          4.1866485492        1.3412061987       -0.4170743113
 C          5.1979208624        2.2306805080       -0.1060662747
 C          4.8842709248        3.5655067349        0.0881883110
 C          3.5668776857        3.9855964276       -0.0208860200
 C          2.5647438027        3.0790447300       -0.3287391282
 C          2.8702657208        1.7411647523       -0.5299577296
 H          2.0968186125        1.0292423744       -0.7724703616
 H          1.5365684784        3.3931407826       -0.4158822573
 H          3.3189760220        5.0241071330        0.1332774751
 H          5.6635750731        4.2717511845        0.3255244843
 H          6.2073956117        1.8587864904       -0.0349765510
 H          4.8780177405       -0.7742141326        1.5863594520
 H          3.3604424685        0.0253324635        3.1862372344
 H          1.0180742187        0.0977496669        3.9641236168
 H         -0.7808745760       -0.8423103947        2.5627336001
 H         -1.0906532532       -2.8195888266        0.7651205931
 C         -0.1759546981       -2.5950881195       -1.1531676504
 C          0.3569794354       -3.9932600028       -1.2344333143
 C         -1.0013944723       -3.6757366139       -1.7816839578
 H         -1.1381563145       -3.6636710806       -2.8526629993
 H         -1.8672460679       -4.0188671836       -1.2342691450
 H          1.1581985011       -4.1970736637       -1.9290326703
 H          0.4144894627       -4.5598781276       -0.3173194328
 H          0.2539222758       -1.8489347707       -1.8132785368
