  62
        -98.94449689
 C         -2.5981960926       -1.1072616020        0.1911263944
 C         -2.5716836474       -0.1893459144       -0.8867389778
 C         -3.1976700751        1.1175578146       -0.6355829090
 C         -3.7677252414        1.3661464976        0.5565087503
 C         -4.3875384815        2.6713710364        0.9607409054
 C         -3.3634467751        3.5836819556        1.6499684714
 C         -2.0447489470        3.7257375151        0.8888085572
 H         -1.5205130305        2.7664164042        0.8847324966
 H         -1.4189888119        4.4235948233        1.4496976689
 C         -2.1928234847        4.2242440066       -0.5553701446
 H         -1.4315665113        4.9849574745       -0.7408478141
 H         -3.1665836788        4.6978935724       -0.6875174497
 C         -2.0052244721        3.1426545996       -1.6211450002
 H         -1.0745108196        2.6001560355       -1.4275565158
 H         -1.8973970667        3.6362918300       -2.5911392793
 C         -3.1489801016        2.1274074723       -1.7472822643
 H         -2.9879194282        1.5569728805       -2.6667359735
 H         -4.1007075370        2.6555355306       -1.8330910657
 H         -3.1431814242        3.1733131839        2.6380257485
 H         -3.8143170461        4.5687814711        1.7829456120
 H         -4.7931919629        3.1636964005        0.0792196728
 H         -5.2011224006        2.4634538641        1.6577134299
 O         -3.8041718644        0.4513622717        1.5575581177
 C         -3.2035445048       -0.7855680259        1.4110765278
 O         -3.2837537691       -1.5127373642        2.4209526283
 H         -0.1355907546       -1.3510472233       -1.5403595823
 C          0.3258803964       -1.6823665507       -0.6219753339
 C         -0.4500918593       -2.3049918199        0.3456119707
 C          0.1577356900       -2.6915050115        1.5345691372
 C          1.5047542532       -2.4551224929        1.7475671571
 C          2.2683235286       -1.8130752278        0.7883748753
 C          1.6666562501       -1.4162828219       -0.3979315260
 N          2.4244481035       -0.7014484434       -1.3566254102
 S          2.8021314477        0.8676633219       -0.8627373393
 O          1.8064926066        1.3879724665        0.0477783300
 O          3.0205925883        1.6207110790       -2.0787034355
 C          4.3556875274        0.6593781807       -0.0187143379
 C          4.4454818649        0.9116646489        1.3358649970
 C          5.6637117624        0.7274549773        1.9716188386
 C          6.7633900658        0.2964779354        1.2453042369
 C          6.6568485965        0.0497344660       -0.1155859266
 C          5.4423539338        0.2325622551       -0.7570828587
 H          5.3147003547        0.0581859166       -1.8123557750
 H          7.5144518246       -0.2844745340       -0.6768491258
 H          7.7092398630        0.1525065872        1.7432522993
 H          5.7482777659        0.9186072291        3.0293517024
 H          3.5615164907        1.2393811360        1.8595033308
 H          1.9502838296       -0.6473595003       -2.2489066070
 H          3.3142358497       -1.6111478569        0.9538327656
 H          1.9622721744       -2.7632061365        2.6753276729
 H         -0.4417704511       -3.1581138115        2.3030034250
 C         -1.9357689730       -2.4782172737        0.1394871476
 H         -2.3333613990       -3.0322239001        0.9999724492
 C         -2.2544631460       -3.2572089347       -1.1204400825
 C         -2.0657583755       -4.7434400016       -1.1177125644
 C         -3.4472561834       -4.1630435677       -1.1363286202
 H         -4.0270716425       -4.2335909129       -2.0443243689
 H         -4.0396647451       -4.2245503592       -0.2349086319
 H         -1.7216526129       -5.2011621583       -0.2026288751
 H         -1.6946429154       -5.2166048169       -2.0137459919
 H         -2.0299369879       -2.7207672758       -2.0324664335
 O         -2.0605688391       -0.4230532272       -2.0161923731
