  62
        -98.93810786
 C          2.4230935307        1.2398869167        0.3086604544
 C          2.4962603901        0.4530292917       -0.8661225263
 C          3.1311925890       -0.8671339993       -0.7203291316
 C          3.5561310296       -1.2630540524        0.4927566616
 C          4.1296216408       -2.6124330413        0.8197244584
 C          2.9956348769       -3.6533085740        0.9186625784
 C          3.0417211355       -4.7397390999       -0.1560329465
 H          3.8316759835       -5.4515848145        0.0928245649
 H          2.0900903254       -5.2743605460       -0.1179809733
 C          3.2830550305       -4.2522500627       -1.5877406339
 H          4.3458261834       -4.0527294471       -1.7331119977
 H          3.0272344061       -5.0804860179       -2.2518193934
 C          2.4879891553       -3.0129137361       -2.0192232656
 H          1.5767010440       -2.9100900866       -1.4279641627
 H          2.1761196090       -3.1545360747       -3.0561198395
 C          3.2810052371       -1.6934225230       -1.9674160863
 H          2.9279944324       -1.0449766703       -2.7746526897
 H          4.3406273197       -1.8971471973       -2.1451524724
 H          2.0386655795       -3.1278799409        0.8635943013
 H          3.0292323089       -4.1374649884        1.8961334788
 H          4.8491741913       -2.9014783651        0.0570504912
 H          4.6475876143       -2.5236670996        1.7749116454
 O          3.4312840874       -0.4936876958        1.6064436559
 C          2.8554859083        0.7639244401        1.5454216149
 O          2.7817795917        1.3491346731        2.6468200324
 O          2.0609254213        0.8305567693       -1.9844415698
 C          1.7628099721        2.6097341042        0.2789783123
 C          0.2935074477        2.4107111668       -0.0049882112
 C         -0.3670714079        2.9285275143       -1.1097815971
 C         -1.7052168878        2.6404656222       -1.3220430749
 C         -2.4092358775        1.8379628067       -0.4428967093
 C         -1.7579696590        1.3220968915        0.6704228998
 C         -0.4224959628        1.6156328052        0.8829309268
 H          0.0871127128        1.2052081950        1.7473987269
 N         -2.4679271844        0.4872154356        1.5669587260
 S         -2.8141044488       -1.0433750317        0.9485308111
 O         -3.0446291064       -1.8823480081        2.1051484498
 O         -1.7865606942       -1.4871015223        0.0322701117
 C         -4.3498195036       -0.7942660019        0.0858528892
 C         -5.4604771548       -0.4453587621        0.8296003579
 C         -6.6625103156       -0.2298774110        0.1748922045
 C         -6.7325155475       -0.3676912733       -1.2036915206
 C         -5.6087402058       -0.7214117125       -1.9349742308
 C         -4.4024666514       -0.9374894539       -1.2864691817
 H         -3.5003837210       -1.2063003698       -1.8126646082
 H         -5.6651147230       -0.8275062806       -3.0063857480
 H         -7.6686764249       -0.1980529032       -1.7117532359
 H         -7.5385293737        0.0451696872        0.7398083701
 H         -5.3601630456       -0.3545720517        1.8982663989
 H         -1.9838930334        0.3714135512        2.4475511701
 H         -3.4499209621        1.6106394922       -0.6070890215
 H         -2.2054414168        3.0442620994       -2.1888587483
 H          0.1693440980        3.5438621081       -1.8127759658
 H          1.8583575499        3.0117496288        1.2979343154
 C          2.4614895994        3.5444909147       -0.6830702053
 C          2.3151936874        5.0261817935       -0.5144278359
 C          3.6177447019        4.3599524996       -0.1908462421
 H          4.4568116981        4.5147884474       -0.8522301061
 H          3.8958628741        4.2533205701        0.8478356511
 H          2.2617762398        5.6432394282       -1.3982665869
 H          1.7083047132        5.3770631673        0.3064856005
 H          2.5248933081        3.1449918246       -1.6877142651
