  62
        -98.94445313
 C         -1.7896206881       -0.6748663233       -0.0545837016
 C         -2.9370746898       -1.2608410642        0.5318195338
 C         -4.2182055470       -0.9301881484       -0.1014103776
 C         -4.2402859300       -0.1330269340       -1.1852011382
 C         -5.4659603281        0.2765763999       -1.9562468317
 C         -6.2036676179        1.4834402669       -1.3602205514
 C         -6.9722785244        1.2031034098       -0.0682261942
 H         -7.6114964937        2.0684494225        0.1180127725
 H         -7.6249201334        0.3419618019       -0.2148759435
 C         -6.0817966068        0.9737203815        1.1609385865
 H         -6.4691424008        1.5503213462        2.0039961706
 H         -5.0752986219        1.3456670561        0.9549309294
 C         -5.9888646084       -0.4836835329        1.6130027848
 H         -5.3075729705       -0.5352784255        2.4661088196
 H         -6.9708310564       -0.8272619182        1.9454810999
 C         -5.4728717727       -1.4469102562        0.5358319057
 H         -5.2344590993       -2.4000965704        1.0138514470
 H         -6.2416487234       -1.6155683509       -0.2177397853
 H         -5.4803779911        2.2840926848       -1.1883187162
 H         -6.9145737675        1.8343156706       -2.1118989307
 H         -6.1506514877       -0.5684959357       -2.0330592892
 H         -5.1266721922        0.5420983799       -2.9598282969
 O         -3.1117986185        0.3935607188       -1.7322775918
 C         -1.8636579840        0.1564778330       -1.1718592707
 O         -0.9233531797        0.7286948781       -1.7554095190
 O         -2.8918399753       -2.0200470854        1.5364755023
 C         -0.4302402998       -0.9584857762        0.5574146287
 C          0.2431838671        0.3277503005        0.9654693734
 C         -0.4768447389        1.2533033745        1.7173886085
 C          0.0986231524        2.4447766910        2.1114331379
 C          1.4064298487        2.7386181512        1.7671875959
 C          2.1400878111        1.8167765360        1.0308886349
 C          1.5605819252        0.6152557671        0.6438797167
 H          2.1436976540       -0.0806849708        0.0649365307
 N          3.4822739591        2.0681154422        0.7208617985
 S          4.2057714110        1.4805869106       -0.6651935251
 O          5.4151412378        2.2688091028       -0.7869300488
 O          3.3219931017        1.5027284748       -1.8060664694
 C          4.6579346610       -0.1936182849       -0.2603422534
 C          4.5659903916       -1.1640182683       -1.2380951227
 C          4.9651227770       -2.4579100682       -0.9401279289
 C          5.4460205361       -2.7573504584        0.3252314976
 C          5.5318156101       -1.7710296455        1.2959396408
 C          5.1399146579       -0.4746269585        1.0028286742
 H          5.1946032025        0.3159300497        1.7321347433
 H          5.9040183857       -2.0083634168        2.2794328953
 H          5.7524573343       -3.7655722380        0.5550087956
 H          4.8985503147       -3.2252200011       -1.6953414466
 H          4.1724357102       -0.8898018129       -2.2044089172
 H          3.8173657940        2.9886373825        0.9632772288
 H          1.8556764101        3.6734879822        2.0658602793
 H         -0.4755861434        3.1555153277        2.6867584264
 H         -1.5009840021        1.0266357642        1.9814769516
 H         -0.6404674758       -1.5383825578        1.4690644626
 C          0.4044319291       -1.8111513379       -0.3745409377
 C          1.4116328295       -2.7692796369        0.1858529961
 C          0.1461081508       -3.2861779561       -0.4276462743
 H          0.1991711931       -3.7838184648       -1.3842718547
 H         -0.6202143480       -3.6768591049        0.2257827789
 H          2.3390530568       -2.9132304622       -0.3472330816
 H          1.5092344013       -2.8162562453        1.2597511479
 H          0.6340869626       -1.3075013032       -1.3078856530
