  62
        -98.93584116
 C         -2.3382790003       -0.1175221492       -0.2624981707
 C         -3.3282383802        0.7850597813        0.2014902287
 C         -4.6097222003        0.1779746317        0.6021004591
 C         -4.7610103405       -1.1566099883        0.5483456300
 C         -6.0251961506       -1.8937456279        0.8812338905
 C         -6.9041205706       -2.0796719686       -0.3635667394
 C         -7.1179348304       -0.7963197591       -1.1662789803
 H         -6.1631146704       -0.4801758295       -1.5928897605
 H         -7.7771207905       -1.0413757496       -2.0019438201
 C         -7.7215030903        0.3630261915       -0.3612474810
 H         -8.1833219103       -0.0195475579        0.5495852592
 H         -8.5115816202        0.8273994212       -0.9551335213
 C         -6.7277678601        1.4683599116        0.0006897283
 H         -6.1945193801        1.7903855509       -0.8973667519
 H         -7.2945298100        2.3272419419        0.3698189177
 C         -5.6917613902        1.1091620421        1.0731666885
 H         -5.1840439801        2.0327173923        1.3662768579
 H         -6.1969694502        0.7004516128        1.9504354088
 H         -7.8697321607       -2.4788462783       -0.0479339092
 H         -6.4284926007       -2.8157740791       -1.0158889689
 H         -5.7563994207       -2.8751770277        1.2753659911
 H         -6.5705225605       -1.3427153074        1.6449169601
 O         -3.7759805706       -1.9943867187        0.1324488205
 C         -2.5561259705       -1.4976434792       -0.2912873198
 O         -1.7532332607       -2.3751189095       -0.6710521392
 H          1.5608729196       -0.6059552400       -0.7001092204
 C          1.2988752397       -0.0890231794        0.2118050493
 C          0.0246301697        0.4330651409        0.3747997889
 C         -0.2908027402        1.0665717917        1.5727521785
 C          0.6548975398        1.1780447823        2.5756643184
 C          1.9357155198        0.6861570420        2.3961190788
 C          2.2589965097        0.0478523412        1.2047211792
 N          3.5452248496       -0.4682300792        0.9848085195
 S          4.1769673596       -0.3350050703       -0.5776780106
 O          3.7966519598        0.9345142694       -1.1530833914
 O          3.8107874795       -1.5104961807       -1.3274012098
 C          5.9257626296       -0.3568548703       -0.2310904006
 C          6.5661662995       -1.5728759503       -0.0850456398
 C          7.9186701095       -1.5844819002        0.2174234602
 C          8.6034432096       -0.3878354102        0.3694829894
 C          7.9472422798        0.8246163198        0.2185932787
 C          6.5946953298        0.8437634197       -0.0831082414
 H          6.0450694599        1.7613321997       -0.2191761920
 H          8.4829427699        1.7530078198        0.3339494680
 H          9.6560491796       -0.4000494502        0.6041866294
 H          8.4329653393       -2.5249461102        0.3324197208
 H          5.9946630293       -2.4763312503       -0.2210182592
 H          4.2116357396       -0.1876981288        1.6911725993
 H          2.6773662698        0.7897489724        3.1735804187
 H          0.3963871599        1.6700098529        3.5013116681
 H         -1.2780884401        1.4824870720        1.7030299082
 C         -0.9706465403        0.3277703503       -0.7518043810
 H         -0.6229020404       -0.4814880502       -1.4153086305
 C         -1.0209503301        1.5988914998       -1.5906183418
 C         -0.5205293199        2.9265874300       -1.1169331527
 C          0.2400989300        2.1749452792       -2.1652063522
 H          0.2207977900        2.5402500086       -3.1813081324
 H          1.1806044099        1.7233573993       -1.8814515519
 H         -1.0810486298        3.8028769299       -1.4044012533
 H         -0.0980263899        2.9871696106       -0.1265568827
 H         -1.8961434501        1.6193189495       -2.2330565718
 O         -3.1732422701        2.0291842113        0.2889207679
