  62
        -98.93961732
 C         -1.0306956104       -1.3174480899       -0.2198104985
 C         -1.9539567204       -1.0963672091        0.8362932014
 C         -2.8768289904        0.0360034107        0.6811159705
 C         -2.7891303605        0.8003490999       -0.4221394801
 C         -3.7243027105        1.9193950896       -0.7842533609
 C         -5.0467317405        1.3394360291       -1.3263754905
 C         -6.2662636705        1.6234672598       -0.4490009007
 H         -6.5678552305        2.6641445796       -0.5857597415
 H         -7.0826852305        0.9947322294       -0.8108194802
 C         -6.0809059305        1.3836825909        1.0526546995
 H         -7.0786026205        1.3680526412        1.4966303595
 H         -5.5569173605        2.2304090113        1.4985915388
 C         -5.3494100104        0.0925596612        1.4421015604
 H         -5.4444288204       -0.6556513994        0.6547885910
 H         -5.8354020404       -0.3178608681        2.3296466308
 C         -3.8607590704        0.2790568416        1.7916342103
 H         -3.7069638705        1.2789813419        2.2064048595
 H         -3.5924354804       -0.4439805978        2.5674106209
 H         -5.2411487705        1.7428120184       -2.3212748508
 H         -4.9254758304        0.2605356390       -1.4439033097
 H         -3.9145074605        2.5423339803        0.0871206386
 H         -3.2337991305        2.5212591890       -1.5491991114
 O         -1.8676926705        0.5839167292       -1.3925104299
 C         -0.9648226004       -0.4644224907       -1.3213533591
 O         -0.1842694204       -0.5071465414       -2.2940318791
 H          1.7153551396       -0.9947390106       -1.3505000687
 C          2.0660751796       -1.3165976799       -0.3813134585
 C          1.2500490597       -2.1156948993        0.4071930421
 C          1.7083784297       -2.4949974883        1.6632939624
 C          2.9519010297       -2.0870667079        2.1160640221
 C          3.7588992396       -1.2831249285        1.3302597915
 C          3.3024783996       -0.8917063795        0.0788120012
 N          4.0900567196       -0.0125263500       -0.7046478795
 S          4.1158667395        1.5591849504       -0.1237172407
 O          4.7401470795        2.3559298997       -1.1547367413
 O          4.7651514695        1.5578534514        1.1624599793
 C          2.4051083095        2.0336326505        0.0653943690
 C          1.8067210995        2.7871224697       -0.9238200516
 C          0.4741180494        3.1387641698       -0.7860435819
 C         -0.2385916405        2.7158968906        0.3245590285
 C          0.3690666495        1.9383512013        1.2976609490
 C          1.7060971295        1.5976832213        1.1737570793
 H          2.2121702195        1.0102350519        1.9224806398
 H         -0.1957129105        1.5905686520        2.1485984593
 H         -1.2761066705        2.9893793006        0.4326383982
 H         -0.0062325806        3.7337656792       -1.5461290123
 H          2.3968341394        3.0946848891       -1.7724092018
 H          3.7903712196        0.0111412192       -1.6706206695
 H          4.7162954796       -0.9291846682        1.6762015812
 H          3.2936177497       -2.3921254472        3.0934661423
 H          1.0742288597       -3.1003665579        2.2943867829
 C         -0.1180132403       -2.5258304697       -0.0792973476
 H         -0.5792407303       -3.1420452491        0.7038913929
 C         -0.0233647903       -3.3533968407       -1.3462982069
 C          0.4089322698       -4.7845291806       -1.2480477858
 C         -1.0141839203       -4.4521850609       -1.5804756061
 H         -1.3648909602       -4.6232346117       -2.5872139660
 H         -1.7666159402       -4.6173075004       -0.8230691560
 H          0.6208719998       -5.1766958498       -0.2649134755
 H          1.0391556098       -5.1864930512       -2.0263724855
 H          0.3009324997       -2.7875867813       -2.2098171774
 O         -2.0091684504       -1.8267636683        1.8613027219
