  62
        -98.94509137
 C         -1.3566362743       -1.4529312772        0.4110782704
 C         -1.8460390517       -0.4351003814        1.2679098086
 C         -2.8200417635        0.4932625579        0.6852233965
 C         -3.1631651265        0.3703046136       -0.6093619013
 C         -4.1383357517        1.2409904233       -1.3537714346
 C         -3.5241126141        2.5484321048       -1.8730410246
 C         -3.2611921833        3.6125042719       -0.8065647102
 H         -3.0620923009        4.5483349637       -1.3326711846
 H         -4.1613826498        3.7586775876       -0.2078420442
 C         -2.0703409220        3.3056996555        0.1122596938
 H         -1.4304019179        2.5572804184       -0.3634857871
 H         -1.4606534380        4.2058745224        0.2273897876
 C         -2.4571890657        2.8394138557        1.5163044734
 H         -2.9714294955        3.6499996850        2.0382049489
 H         -1.5411754365        2.6147266617        2.0683061793
 C         -3.3526592998        1.5944329636        1.5525901758
 H         -3.3779461267        1.2230423056        2.5803259740
 H         -4.3668846045        1.8544008497        1.2496672897
 H         -4.2156109624        2.9645392052       -2.6097986268
 H         -2.5877578177        2.3157633549       -2.3872075404
 H         -4.9946474135        1.4659607350       -0.7167734943
 H         -4.4843230384        0.6584862229       -2.2104592071
 O         -2.6552073362       -0.6028586651       -1.4085810969
 C         -1.7209928327       -1.5163484837       -0.9355191941
 O         -1.3167630079       -2.3130219332       -1.8032035835
 O         -1.4780193588       -0.3034467198        2.4662555972
 C         -0.2952250587       -2.3852104090        0.9667379057
 C          0.9175039230       -2.3907810699        0.0666404265
 C          1.6594975074       -3.5237559877       -0.2397393235
 C          2.7696561150       -3.4276148221       -1.0625114107
 C          3.1650188578       -2.2138168944       -1.5934213795
 C          2.4251154692       -1.0735424673       -1.2960747209
 C          1.3282208809       -1.1729805379       -0.4587979053
 H          0.7445011657       -0.2909192616       -0.2523557684
 N          2.7628317297        0.1695627681       -1.8370805978
 S          2.1573170610        1.6112621572       -1.2767881619
 O          0.7330025324        1.6920283828       -1.4875666111
 O          2.9555511692        2.6078700880       -1.9589699507
 C          2.5431052817        1.6394501324        0.4644946354
 C          3.8756074892        1.6224778106        0.8285316539
 C          4.2039720017        1.6125311375        2.1740803751
 C          3.1992995352        1.6136370378        3.1303461566
 C          1.8667554828        1.6375221500        2.7500901175
 C          1.5343566902        1.6537955300        1.4049722596
 H          0.5055057260        1.6672262509        1.0797699286
 H          1.0785281394        1.6283213511        3.4864186657
 H          3.4539637627        1.5971443314        4.1782583564
 H          5.2394482390        1.5989936627        2.4737595385
 H          4.6285167505        1.6292765529        0.0575427913
 H          3.6435971911        0.2405606867       -2.3197033843
 H          4.0223097608       -2.1476795562       -2.2451858316
 H          3.3344634737       -4.3167106390       -1.2988700896
 H          1.3617639635       -4.4849716123        0.1454900166
 H          0.0052785498       -1.9065168695        1.9154327682
 C         -0.7903028786       -3.7782189062        1.3301584295
 C         -2.2524858049       -4.0800760004        1.4619579013
 C         -1.4649524282       -4.6703782135        0.3329694120
 H         -1.2463265479       -5.7280081262        0.3593382800
 H         -1.6180348920       -4.2759574374       -0.6590438818
 H         -2.5719596092       -4.7270475998        2.2653885610
 H         -2.9515327569       -3.2881585772        1.2335133597
 H         -0.1421012523       -4.2653987694        2.0520041816
