  62
        -98.94192728
 C          2.4124006461        0.9657592312       -0.4606995516
 C          1.6467076086       -0.1347951002       -0.9145684490
 C          2.2590233970       -1.4597206089       -0.7437932557
 C          3.4781566620       -1.5580932276       -0.1844139722
 C          4.1826434210       -2.8489244291        0.1133225112
 C          3.8507408803       -3.3479366820        1.5270491885
 C          2.3562367619       -3.3526309034        1.8514964745
 H          2.2454340051       -3.7494866367        2.8631589601
 H          1.9885878376       -2.3235048530        1.8732515653
 C          1.4955482012       -4.1768214971        0.8836130457
 H          0.7915097048       -4.7748938217        1.4659335740
 H          2.1268813958       -4.8694685088        0.3254973569
 C          0.6670236005       -3.3431258898       -0.0956627244
 H          0.1011137060       -2.5872119941        0.4567046830
 H         -0.0585800952       -4.0052514792       -0.5757376122
 C          1.4633011073       -2.6473610670       -1.2067620784
 H          2.1080890439       -3.3731506138       -1.7059067424
 H          0.7476261493       -2.2609871260       -1.9377191840
 H          4.3535072811       -2.7009695550        2.2497237759
 H          4.2509133387       -4.3572096639        1.6394461454
 H          5.2582739877       -2.6796465661        0.0414922963
 H          3.8916663466       -3.5948642953       -0.6236522314
 O          4.1915774659       -0.4780552805        0.2252782666
 C          3.6714721177        0.8007102563        0.1217146502
 O          4.4158253792        1.6956269328        0.5692499756
 O          0.5081912403       -0.0316733440       -1.4407321367
 C          1.8533581713        2.3804202359       -0.5081319790
 C          0.6972639803        2.4101241489        0.4618831830
 C          0.9634379312        2.5355636839        1.8226627813
 C         -0.0515802267        2.4344373131        2.7557207993
 C         -1.3503922082        2.1823151492        2.3502775969
 C         -1.6228073000        2.0459420310        0.9964466393
 C         -0.6102062368        2.1889959654        0.0571855686
 H         -0.8378733096        2.0790021428       -0.9910676586
 N         -2.9415722026        1.7419769364        0.6046293309
 S         -3.5578779025        0.2562155188        1.1179838495
 O         -4.8721305059        0.5001736365        1.6697694549
 O         -2.6120807371       -0.3686871027        2.0103166795
 C         -3.7310049795       -0.7130917660       -0.3723489444
 C         -4.9896442678       -1.1303658100       -0.7612514662
 C         -5.1191102316       -1.8980134948       -1.9075120354
 C         -3.9925571467       -2.2341357380       -2.6429000627
 C         -2.7375476151       -1.8038893135       -2.2405881814
 C         -2.5985506093       -1.0354493886       -1.0951527466
 H         -1.6269478465       -0.6865060768       -0.7782466702
 H         -1.8572832950       -2.0543491056       -2.8110173800
 H         -4.0914059826       -2.8330621732       -3.5345484033
 H         -6.0949352505       -2.2311260185       -2.2223067627
 H         -5.8349317797       -0.8443039201       -0.1567545669
 H         -3.0954044170        1.8590053236       -0.3873463478
 H         -2.1514953649        2.0650609208        3.0629065612
 H          0.1713440838        2.5384880796        3.8071925515
 H          1.9853988876        2.6922682547        2.1410415469
 H          2.6459799108        3.0351759982       -0.1237544851
 C          1.4997438049        2.8120033434       -1.9150931829
 C          1.2461915192        4.2626231396       -2.1921989195
 C          2.4922278314        3.6077028132       -2.7059196436
 H          2.5767153140        3.4177897313       -3.7653936788
 H          3.4317382675        3.8494869643       -2.2305981449
 H          0.4753664961        4.5271021037       -2.8997693510
 H          1.3388892078        4.9502479708       -1.3650810312
 H          0.9128371497        2.0810737796       -2.4563618004
