  62
        -98.94476133
 C          1.8360205358        0.0324847859        0.0674034720
 C          2.8067850393        0.8832030064        0.6479500987
 C          4.1504393545        0.3132082949        0.7930837552
 C          4.3829960619       -0.9537734567        0.4041015934
 C          5.6947347146       -1.6835431080        0.5096024726
 C          6.6579891706       -1.4078840619       -0.6531934918
 C          7.3013997884       -0.0205550833       -0.6508192785
 H          7.7528621944        0.1675745896        0.3237899998
 H          8.1090798733       -0.0412047021       -1.3852248491
 C          6.3412928421        1.1235105346       -1.0055659107
 H          6.8177488034        1.7871825499       -1.7306650036
 H          5.4487937798        0.7147617400       -1.4851058272
 C          5.9138531586        1.9836853431        0.1836465465
 H          5.2071883662        2.7363949136       -0.1748834757
 H          6.7832947593        2.5047736056        0.5904726827
 C          5.2382851193        1.2012656940        1.3173584522
 H          5.9778476338        0.6168878514        1.8641542143
 H          4.7801994968        1.9181822589        2.0031268292
 H          7.4542153705       -2.1540304650       -0.6000613785
 H          6.1227969048       -1.5600246853       -1.5934097660
 H          6.1801109792       -1.4314731767        1.4528973700
 H          5.4572753082       -2.7495302849        0.5143316965
 O          3.4156147181       -1.7475061560       -0.1287323864
 C          2.1265195271       -1.2729193142       -0.3285956963
 O          1.3513730825       -2.0975039818       -0.8491308094
 H         -1.9623028961       -0.4955814827       -1.0652441105
 C         -1.7378893196       -0.7557848059       -0.0445862388
 C         -0.5750825375       -0.3106138546        0.5636465422
 C         -0.3318187491       -0.6795029637        1.8852422102
 C         -1.2111252545       -1.4974476507        2.5655972996
 C         -2.3645045696       -1.9523561341        1.9498271402
 C         -2.6255732885       -1.5782965444        0.6385314530
 N         -3.7890005641       -2.0186453966       -0.0114414038
 S         -4.6527062281       -0.9444995153       -0.9546943489
 O         -5.9974940746       -1.4791722627       -0.9744534710
 O         -4.0247479224       -0.7783142550       -2.2405590295
 C         -4.6159806777        0.5913087148       -0.0465764409
 C         -4.0693645581        1.7178077988       -0.6242889023
 C         -4.0249907842        2.8935225620        0.1082968464
 C         -4.5232620501        2.9206255002        1.4011774655
 C         -5.0759746111        1.7811532644        1.9660463873
 C         -5.1244118613        0.6041463265        1.2376886518
 H         -5.5566662203       -0.2953244223        1.6447522552
 H         -5.4661133625        1.8069580529        2.9707138525
 H         -4.4823352049        3.8356142385        1.9708099121
 H         -3.5999149511        3.7818262968       -0.3315049927
 H         -3.6888263714        1.6522510670       -1.6303622515
 H         -4.3985537297       -2.5901551900        0.5546852105
 H         -3.0493938880       -2.5997789165        2.4758700540
 H         -1.0004485975       -1.7831756151        3.5850997166
 H          0.5690348237       -0.3249646561        2.3672168897
 C          0.4298556127        0.5634140196       -0.1431756526
 H          0.4195018021        1.5552225150        0.3336183657
 C          0.1571826252        0.7328232136       -1.6229019616
 C         -0.7445129786        1.8260080147       -2.1086837303
 C          0.7340750205        1.9198665327       -2.3327338071
 H          1.1174697499        1.7869454220       -3.3333616285
 H          1.2972273230        2.6251103311       -1.7389947369
 H         -1.3817821236        1.6254365896       -2.9574017150
 H         -1.1818588450        2.4749276162       -1.3653723521
 H          0.1509337302       -0.2114294848       -2.1569031792
 O          2.5592578182        2.0571910965        1.0331065254
