  62
        -98.94082298
 C         -2.3822615318       -0.5974239823        0.0360455658
 C         -3.6283940121       -0.8823021041        0.6448220466
 C         -4.6160464656        0.2016040753        0.6172863012
 C         -4.2907236678        1.3864414919        0.0687631500
 C         -5.1804264779        2.5974313248       -0.0107328685
 C         -6.1472119056        2.5856960177       -1.2030215438
 C         -7.3107115300        1.5998470129       -1.0887641640
 H         -7.8192881904        1.7489989103       -0.1358151739
 H         -8.0207439159        1.8500752321       -1.8795105154
 C         -6.9085424771        0.1256486213       -1.2352228191
 H         -7.6033971566       -0.3760480975       -1.9124002346
 H         -5.9169864823        0.0620594376       -1.6892818532
 C         -6.9035393305       -0.6626272863        0.0744801738
 H         -7.9189028815       -0.7187058413        0.4729383263
 H         -6.5687263051       -1.6807625165       -0.1394585677
 C         -5.9857780885       -0.0801278237        1.1572595891
 H         -5.8825325005       -0.8203014180        1.9545406838
 H         -6.4242972174        0.8255602432        1.5755449164
 H         -6.5602267433        3.5927595731       -1.2962053235
 H         -5.5781795199        2.3747420732       -2.1113847873
 H         -5.7453383025        2.6986044288        0.9164400703
 H         -4.5197857337        3.4613691195       -0.1110803289
 O         -3.0690534474        1.6317710876       -0.4763180197
 C         -2.0922005226        0.6471787520       -0.5223519664
 O         -1.0336920823        1.0019174893       -1.0765883237
 O         -3.8988394215       -1.9863195661        1.1885807454
 C         -1.3150438703       -1.6776307066        0.0172053268
 C         -0.1173265466       -1.2033064671        0.8023639788
 C         -0.2918625062       -0.8833639708        2.1468763168
 C          0.7641741715       -0.4163370957        2.9037599941
 C          2.0200309575       -0.2608078211        2.3414177955
 C          2.2049518566       -0.5736103084        1.0024961513
 C          1.1395218481       -1.0467439276        0.2432903153
 H          1.2967091614       -1.2791363308       -0.7983803606
 N          3.4809491190       -0.4580870470        0.4149545129
 S          4.4111343551        0.9199495886        0.7065233865
 O          4.8214757085        0.9191548498        2.0880613969
 O          3.7225637673        2.1082352626        0.2509746766
 C          5.8135433533        0.5728143870       -0.3367298985
 C          5.8655834648        1.1107589368       -1.6083746796
 C          6.9485992468        0.8097614889       -2.4195712245
 C          7.9533744863       -0.0220400656       -1.9488027790
 C          7.8869430878       -0.5542549394       -0.6696641257
 C          6.8076795959       -0.2563958493        0.1467427374
 H          6.7171562679       -0.6393452122        1.1496033434
 H          8.6713548838       -1.1986915779       -0.3069570082
 H          8.7947345041       -0.2544320607       -2.5824057254
 H          7.0039586062        1.2243196403       -3.4133412791
 H          5.0661876164        1.7595676883       -1.9297698659
 H          3.4394446746       -0.6218706861       -0.5827858431
 H          2.8478030228        0.1129206685        2.9209085514
 H          0.6126800945       -0.1685256811        3.9439230212
 H         -1.2732413105       -0.9990951358        2.5868541579
 H         -1.7560287250       -2.5304807222        0.5532938688
 C         -1.0028359049       -2.1022765239       -1.4015175274
 C         -0.4006918722       -3.4493905220       -1.6645516891
 C         -1.8278751606       -3.1812630656       -2.0339258514
 H         -2.0832871221       -3.0884611638       -3.0789034743
 H         -2.6064487182       -3.6277117902       -1.4329283670
 H          0.3238916244       -3.5453070286       -2.4589771537
 H         -0.2079218081       -4.0830818899       -0.8123397540
 H         -0.7022389630       -1.2724447543       -2.0314108920
