  62
        -98.94289897
 C         -1.9963245874       -1.0313032002        0.4212092763
 C         -2.6206526493        0.0152303509        1.1496646470
 C         -4.0442156500        0.2464858193        0.8758448951
 C         -4.6754551508       -0.5390688710       -0.0152853280
 C         -6.1067443377       -0.3821824623       -0.4377737959
 C         -6.2249828009        0.5367790852       -1.6617881489
 C         -5.4615722293        1.8539031399       -1.5217681968
 H         -4.3899981919        1.6440104201       -1.4834902147
 H         -5.6424577023        2.4330409362       -2.4298941275
 C         -5.8568053022        2.6893132010       -0.2960003246
 H         -6.8224884358        2.3551035452        0.0850103361
 H         -5.9725219335        3.7306254096       -0.6039498000
 C         -4.8319584644        2.6730232268        0.8398536570
 H         -3.8423877997        2.9186775136        0.4454230116
 H         -5.1022008445        3.4562031011        1.5533906435
 C         -4.7250068928        1.3584121373        1.6229395517
 H         -4.1082866097        1.5476387716        2.5066318515
 H         -5.7170682845        1.0473585514        1.9569785204
 H         -7.2821791332        0.7440868231       -1.8369159299
 H         -5.8333433101        0.0058228686       -2.5324066359
 H         -6.4997154144       -1.3672699708       -0.6945913678
 H         -6.6826546980        0.0233818939        0.3917655408
 O         -4.0552015127       -1.5471046315       -0.6743313640
 C         -2.7055486839       -1.8155112514       -0.4895762040
 O         -2.2918718273       -2.7619496398       -1.1859502995
 H          1.1626870490        0.8422385302        0.9536132023
 C          1.1447802576        0.4602532144       -0.0563246755
 C          0.3327809191       -0.6176295495       -0.3798566918
 C          0.3183156779       -1.0735452644       -1.6949264590
 C          1.0959735921       -0.4577302317       -2.6577115069
 C          1.9163661199        0.6073982701       -2.3279494221
 C          1.9397137005        1.0698618961       -1.0183987097
 N          2.7655663828        2.1494305732       -0.6498158892
 S          3.8629797890        1.9220910572        0.5944612802
 O          3.1666236822        1.7330144535        1.8402418131
 O          4.7521313158        3.0593605131        0.5177476806
 C          4.7349484824        0.4348041657        0.1368852125
 C          5.8883409790        0.5439173022       -0.6153579808
 C          6.5250437337       -0.6116446017       -1.0381343738
 C          5.9926383797       -1.8505506070       -0.7142835745
 C          4.8325698789       -1.9432173201        0.0391625913
 C          4.1952472201       -0.7911093082        0.4714524379
 H          3.2934315237       -0.8258580191        1.0600854769
 H          4.4161231163       -2.9053283238        0.2907172828
 H          6.4847069191       -2.7500459458       -1.0490671298
 H          7.4295840249       -0.5433066564       -1.6207440664
 H          6.2685411061        1.5272640868       -0.8405502152
 H          3.2282646330        2.5912947296       -1.4320673288
 H          2.5271812383        1.0838596263       -3.0799094257
 H          1.0691623826       -0.8160612150       -3.6755436720
 H         -0.3249946308       -1.8989575636       -1.9571699984
 C         -0.5177595178       -1.2600401550        0.6902771263
 H         -0.3173236119       -0.7317919992        1.6328743531
 C         -0.1562266030       -2.7202433687        0.8766512102
 C          1.0316598442       -3.0740836506        1.7181108286
 C         -0.3528703316       -3.3536250992        2.2196560988
 H         -0.6940709001       -4.3769904519        2.2609907202
 H         -0.7432430047       -2.7318720179        3.0126268465
 H          1.5778277641       -2.2656587144        2.1817940743
 H          1.6460176823       -3.9087140327        1.4179822803
 H         -0.3611384735       -3.3320856734        0.0084370653
 O         -2.0128088164        0.7216640122        1.9994129578
