  62
        -98.95211799
 C         -2.3557541296       -0.3516916876        0.0418035666
 C         -1.5188100963        0.2238981692       -0.9419755842
 C         -1.5324665313        1.6898837533       -1.0233435597
 C         -2.3155848566        2.3871254067       -0.1805008585
 C         -2.4409483024        3.8829897806       -0.1618662049
 C         -1.4558121041        4.5310436084        0.8189457041
 C         -0.0127127217        4.0522099311        0.6595683248
 H          0.5981236449        4.6249388512        1.3618622908
 H          0.0606010527        3.0050479567        0.9628265273
 C          0.5588512826        4.2064667503       -0.7566728498
 H         -0.0330008763        4.9277524630       -1.3223933920
 H          1.5724376765        4.6056194289       -0.6786901625
 C          0.6568663082        2.8940887598       -1.5369812083
 H          1.3147524287        3.0538817569       -2.3957315221
 H          1.1216968105        2.1376887485       -0.8994106630
 C         -0.6682996686        2.3339492610       -2.0705747361
 H         -1.2167272170        3.1210193546       -2.5933145025
 H         -0.4318072276        1.5438876077       -2.7893094360
 H         -1.4986908507        5.6137310542        0.6818949124
 H         -1.7790707984        4.3044924401        1.8377363771
 H         -2.2702604400        4.2649443328       -1.1668117213
 H         -3.4585293670        4.1341570914        0.1439907528
 O         -3.0878752950        1.8006068713        0.7706481646
 C         -3.1134466917        0.4234985183        0.9172440516
 O         -3.8450393611        0.0157634744        1.8441064470
 O         -0.8073297981       -0.4575784277       -1.7271483256
 C         -2.4221728473       -1.8619287385        0.1836659721
 C         -1.0338266751       -2.4363931570        0.3255106321
 C         -0.6212948943       -3.6026587501       -0.3076060436
 C          0.6735926676       -4.0662667939       -0.1510756897
 C          1.5879084114       -3.3686405781        0.6168307971
 C          1.1810494730       -2.2073060074        1.2631452044
 C         -0.1274147453       -1.7701740869        1.1400101340
 H         -0.4300546650       -0.8681365435        1.6520144291
 N          2.0770008217       -1.4456646187        2.0425757540
 S          2.3912499911        0.1196114374        1.5294191441
 O          3.3602701278        0.6349852859        2.4732146923
 O          1.1598229664        0.8552405328        1.4145416134
 C          3.1747971938       -0.0830805909       -0.0610462160
 C          2.4094306583       -0.4040817186       -1.1644071522
 C          3.0494939675       -0.6187756566       -2.3761364041
 C          4.4285393998       -0.5138102436       -2.4646389161
 C          5.1819318996       -0.1927838105       -1.3452212103
 C          4.5513561353        0.0200734011       -0.1306310521
 H          5.0931538881        0.2748206468        0.7659823317
 H          6.2546575902       -0.1099268893       -1.4144216387
 H          4.9176095303       -0.6827438135       -3.4110762844
 H          2.4551716877       -0.8679227539       -3.2405265706
 H          1.3354122011       -0.4766396905       -1.0843010888
 H          2.9548808289       -1.9135270863        2.2238473690
 H          2.6059172842       -3.7142979030        0.7166914631
 H          0.9798697398       -4.9729264682       -0.6500595456
 H         -1.3130584259       -4.1463376791       -0.9300370410
 H         -2.9754804393       -2.0580619521        1.1142470559
 C         -3.1964514389       -2.4523461000       -0.9784132917
 C         -4.0176255205       -3.6920870120       -0.7929681100
 C         -4.6920065397       -2.3653895194       -0.9668980769
 H         -5.2043857919       -2.1619908721       -1.8952115726
 H         -5.1521022966       -1.9039815699       -0.1049020817
 H         -4.0723520676       -4.4015812662       -1.6048554245
 H         -4.0324322078       -4.1404220913        0.1889751089
 H         -2.6948822862       -2.3048226404       -1.9281685974
