  62
        -98.94543440
 C         -2.4524645808       -1.2104197403       -0.0039698503
 C         -3.2122734109       -0.4745238401        0.9358507395
 C         -3.9359396509        0.6863446398        0.4060665792
 C         -3.8443503809        0.9896439995       -0.9018084008
 C         -4.5426174909        2.1272705893       -1.5966197811
 C         -3.8078381510        3.4705350393       -1.4889749914
 C         -3.8608158411        4.1322476296       -0.1113500716
 H         -4.8970556611        4.1905984097        0.2230389184
 H         -3.4986872011        5.1549467296       -0.2332548918
 C         -3.0110840211        3.4335942999        0.9595004486
 H         -2.4358224811        4.1801503301        1.5123039885
 H         -2.2880772510        2.7719388599        0.4747846088
 C         -3.8160503010        2.6308816701        1.9821262088
 H         -4.4466193111        3.3078992002        2.5623395886
 H         -3.1152406410        2.1513396903        2.6705252489
 C         -4.7038032510        1.5384615500        1.3714184590
 H         -5.5670647810        1.9865753698        0.8803576389
 H         -5.0550201810        0.8916867801        2.1791278592
 H         -4.2637471910        4.1503839391       -2.2124002616
 H         -2.7654395710        3.3239270393       -1.7832051114
 H         -5.5540479209        2.2319559693       -1.2030172212
 H         -4.6055210609        1.8539708890       -2.6520715811
 O         -3.0966807408        0.2607664993       -1.7727022606
 C         -2.3667585208       -0.8406629006       -1.3464689004
 O         -1.7047820907       -1.3949982207       -2.2436585602
 O         -3.2801517009       -0.7720080898        2.1592752896
 C         -1.6659361208       -2.4191062201        0.4710718900
 C         -0.1918275908       -2.1899184901        0.2435840100
 C          0.6395006593       -3.0995911102       -0.3952592498
 C          1.9788896293       -2.8074762102       -0.5893270098
 C          2.5186704592       -1.6144298500       -0.1463832201
 C          1.6975577392       -0.6993891499        0.5002791897
 C          0.3579816792       -0.9953582000        0.6941459597
 H         -0.2823739809       -0.2788805999        1.1952303195
 N          2.2404965791        0.5123298802        0.9680294194
 S          3.0845766491        1.4603626100       -0.1342547408
 O          3.0054756890        2.8064294001        0.3914284489
 O          2.6019410091        1.2680904996       -1.4825253107
 C          4.7620097591        0.8803811001        0.0080220594
 C          5.3479685591        0.8799056004        1.2588774594
 C          6.6539986991        0.4344132305        1.3852298595
 C          7.3491352991        0.0033659903        0.2649852497
 C          6.7481677692        0.0145361900       -0.9844458504
 C          5.4411442391        0.4573205499       -1.1176641705
 H          4.9294346392        0.4766347096       -2.0668512005
 H          7.2898657692       -0.3205440202       -1.8543531903
 H          8.3652679491       -0.3437529996        0.3660501098
 H          7.1246573891        0.4240543608        2.3551009496
 H          4.7740094390        1.2256317406        2.1022415093
 H          1.5757864691        1.0797517003        1.4748280293
 H          3.5595421592       -1.3822681100       -0.3014815901
 H          2.6117307193       -3.5206420303       -1.0950705296
 H          0.2370789894       -4.0327540003       -0.7529497396
 H         -1.8399801908       -2.4712873399        1.5563640300
 C         -2.1948561207       -3.6850432203       -0.1681419797
 C         -2.0546630506       -5.0000920201        0.5369668006
 C         -3.3989883207       -4.3474053302        0.4289338204
 H         -4.1325250606       -4.7782128404       -0.2358470595
 H         -3.8243396607       -3.8972863900        1.3140957803
 H         -1.8670841406       -5.8841099602       -0.0533868092
 H         -1.5679605607       -5.0004258699        1.5003892906
 H         -2.1175625407       -3.6690140305       -1.2494562897
