  62
        -98.93420155
 C          2.4722126502        0.9933140109        0.5748551002
 C          2.3365176604        0.1825192510       -0.5752806398
 C          2.6330792505       -1.2537098890       -0.4096855799
 C          2.9849826403       -1.7126461490        0.8048386201
 C          3.3227590504       -3.1225184091        1.2178763701
 C          2.3657075905       -4.2196035791        0.7248876099
 C          2.9897276807       -5.1388927890       -0.3259624201
 H          4.0249007807       -5.3394629389       -0.0422615800
 H          2.4571647108       -6.0923770990       -0.3164590102
 C          2.9515269009       -4.6035486489       -1.7560165901
 H          3.5386990410       -5.2823768688       -2.3789760300
 H          1.9232639509       -4.6312993889       -2.1237274902
 C          3.4882534808       -3.1822387688       -1.9400249199
 H          4.3772572707       -3.0253645688       -1.3306511298
 H          3.7934337409       -3.0752789887       -2.9830947899
 C          2.4513665807       -2.0871991689       -1.6487517200
 H          2.4438591807       -1.3614261889       -2.4685896399
 H          1.4439300007       -2.5165315590       -1.6285936101
 H          2.0850063805       -4.8302240292        1.5846683098
 H          1.4515771506       -3.7684009391        0.3391502898
 H          4.3421278405       -3.3468514690        0.8956105602
 H          3.3363843903       -3.1035735991        2.3098873701
 O          3.1024665602       -0.8905146291        1.8878878502
 C          2.8379113901        0.4644494709        1.8100838302
 O          2.9515132999        1.0771926008        2.8916478503
 O          1.9820895605        0.6348554610       -1.6961314798
 C          2.1423495301        2.4735951509        0.4998552603
 C          0.7288712701        2.6433260808       -0.0037452499
 C          0.3636050602        3.5567510609       -0.9834875898
 C         -0.9449671298        3.6207057408       -1.4321769800
 C         -1.9155954798        2.7823878007       -0.9154721502
 C         -1.5636698798        1.8793534507        0.0774953798
 C         -0.2573525299        1.8247078707        0.5325761700
 H          0.0113939101        1.1080466107        1.3009586000
 N         -2.5503142998        1.0051885005        0.6020304496
 S         -2.9401778796       -0.2997374594       -0.4046100405
 O         -2.1016294796       -1.4342094494       -0.0709048105
 O         -2.9228589195        0.1401679607       -1.7752516905
 C         -4.6175477397       -0.6237450196        0.1041481193
 C         -4.8925911797       -1.6885746397        0.9389624892
 C         -6.2004839597       -1.9000089998        1.3474249990
 C         -7.2039684797       -1.0444462398        0.9198138890
 C         -6.9115090097        0.0221793502        0.0825372891
 C         -5.6065996597        0.2375062604       -0.3297781408
 H         -5.3337124196        1.0476129404       -0.9853798007
 H         -7.6946609397        0.6848118602       -0.2487962410
 H         -8.2204988697       -1.2109692399        1.2395319488
 H         -6.4302065197       -2.7294603198        1.9968181089
 H         -4.0816624497       -2.3313751896        1.2417693192
 H         -2.2542599799        0.6107088905        1.4862616297
 H         -2.9292282097        2.8033967006       -1.2796115403
 H         -1.2089082698        4.3281397108       -2.2035808700
 H          1.1085514402        4.2083910509       -1.4102739897
 H          2.1903693499        2.8497645808        1.5325107803
 C          3.1743167101        3.2031586510       -0.3341996395
 C          3.4973724800        4.6386631610       -0.0506240894
 C          4.4841560100        3.5658836911        0.2963078506
 H          5.3829203401        3.4774306312       -0.2951807593
 H          4.6193888799        3.3077141910        1.3367501706
 H          3.7232016800        5.2901021311       -0.8812658293
 H          2.9685479398        5.1197335110        0.7581603206
 H          3.1898315003        2.8641896211       -1.3637434496
