  62
        -98.93076276
 C         -2.3847964499       -1.2002148735       -0.1298068691
 C         -2.3047859420        0.1016931880        0.4182352921
 C         -3.5891471415        0.7415155587        0.7693984738
 C         -4.7333757003        0.0565659931        0.6060681385
 C         -6.1360780660        0.5402205798        0.8498125462
 C         -6.7523854711        1.0927592954       -0.4464970156
 C         -6.4625248777        2.5681637396       -0.7195812603
 H         -7.0276267574        3.1810750721       -0.0143092588
 H         -6.8357038636        2.7927554873       -1.7213959825
 C         -4.9876018050        2.9720114488       -0.6434539138
 H         -4.8663284931        3.9030670120       -1.2006848031
 H         -4.3719647159        2.2189712287       -1.1391646878
 C         -4.4936184557        3.1874395181        0.7950047085
 H         -5.3537076434        3.2318333409        1.4629316758
 H         -3.9970659831        4.1575436695        0.8643107121
 C         -3.4931893962        2.1416739977        1.3115101397
 H         -3.5545048344        2.0975923212        2.4040718339
 H         -2.4739962529        2.4619784141        1.0717081731
 H         -7.8356535948        0.9639425763       -0.4021574526
 H         -6.3851246900        0.4850118947       -1.2775212342
 H         -6.1557720295        1.2820783453        1.6424802720
 H         -6.7143377058       -0.3303778596        1.1660868455
 O         -4.7601422756       -1.2180923099        0.1278664951
 C         -3.6035839371       -1.8726642750       -0.2503751580
 O         -3.7837462086       -3.0362842224       -0.6607255943
 O         -1.2234746842        0.7180852203        0.6093501846
 C         -1.1470981453       -1.9654552485       -0.5646643554
 C         -0.0493956095       -1.8159464245        0.4602838329
 C         -0.2937814484       -2.2462244349        1.7620341737
 C          0.6734029982       -2.1201959214        2.7392847509
 C          1.9068869322       -1.5710682346        2.4373907526
 C          2.1676894932       -1.1535277469        1.1374080722
 C          1.1927073362       -1.2810440495        0.1578404130
 H          1.4084666169       -0.9231763606       -0.8338887732
 N          3.4388255372       -0.6501764264        0.8074531756
 S          3.6631723664        0.4895263229       -0.4130097468
 O          2.9505400064        1.7129320813       -0.1201312437
 O          3.3942334127       -0.1240153670       -1.6889125641
 C          5.4197369669        0.7506621951       -0.2386483981
 C          5.8826638101        1.8603852681        0.4422839135
 C          7.2498609831        2.0351896376        0.5901331011
 C          8.1264178480        1.1010640460        0.0592606912
 C          7.6471531949       -0.0076776660       -0.6227246120
 C          6.2816564200       -0.1872587343       -0.7749506311
 H          5.8636361017       -1.0274156395       -1.3043191284
 H          8.3318439240       -0.7304310067       -1.0364043050
 H          9.1897635125        1.2393688802        0.1754309417
 H          7.6251469072        2.8977233140        1.1169876495
 H          5.1641805242        2.5646722851        0.8302702903
 H          3.9737792168       -0.3925816581        1.6260759165
 H          2.6609886860       -1.4657836448        3.2026434633
 H          0.4650456143       -2.4462849853        3.7474440772
 H         -1.2628696101       -2.6656315131        1.9990290679
 H         -1.4560620061       -3.0246148091       -0.5710512607
 C         -0.6891053084       -1.6392234302       -1.9785838697
 C         -1.6540724201       -1.1692427660       -3.0245541976
 C         -0.6155814325       -0.2325072254       -2.4882082946
 H          0.2181566156        0.0391001210       -3.1201530430
 H         -0.9227379179        0.5568652928       -1.8200263596
 H         -1.5409317662       -1.5440497407       -4.0306374240
 H         -2.6818966277       -1.0187583303       -2.7272180032
 H          0.0900814188       -2.3156076254       -2.3179564909
