  62
        -98.94478504
 C          1.9313757850       -0.4358656936        0.6475725133
 C          2.9736061405       -1.2818716274        0.1983876199
 C          4.3303038745       -0.7247567165        0.2712183694
 C          4.5050676769        0.5170713586        0.7593247529
 C          5.8248222579        1.2272812530        0.8387939066
 C          6.0897641434        2.0499331571       -0.4299459997
 C          5.8731152137        1.2711492725       -1.7274433159
 H          4.8134739102        1.0222771158       -1.8199870129
 H          6.1186569205        1.9418368687       -2.5536717479
 C          6.7076667623       -0.0119470485       -1.8447388985
 H          7.1403083236       -0.0577135713       -2.8463816748
 H          7.5356873284        0.0188384802       -1.1356836623
 C          5.9154634688       -1.3049100031       -1.6424305608
 H          5.0323908428       -1.2977807564       -2.2862488462
 H          6.5439615744       -2.1415779154       -1.9587705102
 C          5.4617330745       -1.5917507642       -0.2054838169
 H          6.3151349184       -1.5187969393        0.4716072649
 H          5.0854173429       -2.6184491481       -0.1749028030
 H          5.4167845817        2.9105664486       -0.4308739203
 H          7.1156728719        2.4208321432       -0.3927056340
 H          5.8025082307        1.8989582052        1.6986029363
 H          6.6175560805        0.4956118594        0.9822580193
 O          3.4811201861        1.2939855828        1.1963303529
 C          2.1686004053        0.8456386440        1.1442321610
 O          1.3300367261        1.6653214375        1.5637488845
 O          2.7769013767       -2.4448067824       -0.2459350954
 C          0.5021148209       -0.9468369569        0.5936900050
 C         -0.3341158474       -0.0311413239       -0.2644727435
 C          0.0823483004        0.2175450596       -1.5710035390
 C         -0.6272454313        1.0729635533       -2.3895098054
 C         -1.7775989186        1.6898811104       -1.9280508002
 C         -2.2069868733        1.4438972081       -0.6304452864
 C         -1.4894492783        0.5825912364        0.1908742572
 H         -1.8376335011        0.4277337300        1.1976608081
 N         -3.3630502212        2.0676749851       -0.1339910115
 S         -4.5019978077        1.1886529005        0.7160694649
 O         -5.6794037918        2.0284737485        0.7176263631
 O         -3.9881075386        0.8086805251        2.0063803579
 C         -4.7859413908       -0.2529008332       -0.2944500274
 C         -5.6355312503       -0.1344138819       -1.3774447768
 C         -5.8140198967       -1.2249563121       -2.2125471278
 C         -5.1353925065       -2.4071738307       -1.9573069851
 C         -4.2864257276       -2.5096347895       -0.8663788835
 C         -4.1072268430       -1.4234610186       -0.0239956395
 H         -3.4598016994       -1.4670931872        0.8359188726
 H         -3.7608184172       -3.4301574697       -0.6680389304
 H         -5.2703525205       -3.2549552553       -2.6103189853
 H         -6.4775988910       -1.1503633559       -3.0589391933
 H         -6.1512969878        0.7991493322       -1.5340209001
 H         -3.8108452844        2.6934350540       -0.7875012326
 H         -2.3302332584        2.3659583908       -2.5626097069
 H         -0.2859552307        1.2615846776       -3.3961950563
 H          0.9819841356       -0.2636787407       -1.9299414258
 H          0.5640904731       -1.9259407900        0.0958828388
 C         -0.0409529923       -1.1477783777        1.9919083391
 C         -1.0801833147       -2.1952316270        2.2528492806
 C          0.3227786096       -2.3932048629        2.7412744222
 H          0.5196219366       -2.3181561579        3.8002085957
 H          0.9442377451       -3.1148060073        2.2313124322
 H         -1.8547539330       -1.9837009625        2.9755067737
 H         -1.4038352129       -2.7938577085        1.4145570139
 H         -0.0909299024       -0.2257091947        2.5608227029
