  62
        -98.94590850
 C         -1.7981926384       -1.3814641998       -0.2593623683
 C         -3.0750533784       -1.2160894202        0.3319130617
 C         -3.8628603389       -0.0781152106       -0.1534789686
 C         -3.3494311892        0.7368005793       -1.0929966988
 C         -4.0283761397        1.9419845389       -1.6852157991
 C         -3.8956362002        3.2140655292       -0.8361579795
 C         -4.7374181002        3.2376263692        0.4403802406
 H         -4.7236456506        4.2634300193        0.8139733303
 H         -5.7724247201        2.9948955687        0.1974147907
 C         -4.2336275398        2.3030224097        1.5491721008
 H         -3.2002115497        2.0149605800        1.3427163508
 H         -4.2325742299        2.8361857400        2.5025134207
 C         -5.0702823193        1.0379878094        1.7394163312
 H         -4.6031661690        0.4311819798        2.5192503613
 H         -6.0728284693        1.3077596191        2.0790547511
 C         -5.1984494690        0.1725840390        0.4792784714
 H         -5.6154412486       -0.7950620811        0.7694515117
 H         -5.8745947692        0.6438594886       -0.2338047987
 H         -4.2016495406        4.0555452389       -1.4619911897
 H         -2.8436538603        3.3550866897       -0.5788393795
 H         -3.5550580799        2.1223202888       -2.6528031292
 H         -5.0835475397        1.7232316184       -1.8519451290
 O         -2.1224811892        0.5383653996       -1.6428153588
 C         -1.3177640388       -0.5216952199       -1.2470872785
 O         -0.2290200588       -0.5830962797       -1.8484731086
 H          1.6273645820       -2.4201370387       -0.8164616381
 C          1.5419456218       -1.9145155884        0.1319426917
 C          0.3342346019       -1.9102851087        0.8093294618
 C          0.2548295817       -1.2337206484        2.0243629716
 C          1.3558028214       -0.5798075778        2.5436710814
 C          2.5558676414       -0.5666152275        1.8526548913
 C          2.6403742616       -1.2302206078        0.6366346415
 N          3.8376946816       -1.1889966476       -0.0971162385
 S          4.6542454410        0.2662599127       -0.1840897190
 O          5.3618327709        0.2291412126       -1.4457358690
 O          5.4858279310        0.4176631234        0.9858385009
 C          3.4276774405        1.5666554822       -0.2009663493
 C          2.2966093505        1.4406756616       -0.9822959792
 C          1.3736879601        2.4746728112       -0.9936102595
 C          1.5983163396        3.6161763915       -0.2407321398
 C          2.7432183496        3.7307682022        0.5329246201
 C          3.6647930600        2.6968978325        0.5567827704
 H          4.5615165600        2.7388263131        1.1537647103
 H          2.9177657393        4.6190797924        1.1184663099
 H          0.8774708793        4.4185980412       -0.2568253600
 H          0.4800596401        2.3647167707       -1.5883782094
 H          2.1098207808        0.5486547913       -1.5586609290
 H          3.7700490517       -1.6188496179       -1.0082334584
 H          3.4219776212       -0.0503711171        2.2347271012
 H          1.2793934612       -0.0643764376        3.4888928912
 H         -0.6898743283       -1.2177728886        2.5502017116
 C         -0.9161890479       -2.5191575894        0.2278260520
 H         -1.4804256777       -3.0024908294        1.0367752122
 C         -0.6656038376       -3.5343259296       -0.8666200777
 C         -0.1536587970       -4.8968584493       -0.5092240774
 C         -1.5666330471       -4.7258430600       -0.9779044574
 H         -1.8308612170       -5.0810561103       -1.9627471272
 H         -2.3624418770       -4.8184562101       -0.2536289973
 H          0.5531286032       -5.3742214792       -1.1709345973
 H          0.0124731231       -5.1068953589        0.5364608927
 H         -0.3235040478       -3.0880922997       -1.7933163679
 O         -3.5327346881       -1.9833420001        1.2196343820
