  62
        -98.93107179
 C         -2.2166952290       -0.8535344803       -0.2325219067
 C         -3.5940163214       -1.1937485995       -0.2638350897
 C         -4.5265720680       -0.1238819219       -0.6358977410
 C         -4.0379708988        1.0956275178       -0.9257794012
 C         -4.8722645178        2.2920006366       -1.2802566069
 C         -5.2440725205        3.1033591030       -0.0313699847
 C         -5.8160862699        2.2577668842        1.1064087922
 H         -5.0362936983        1.5891577165        1.4783423192
 H         -6.0708428517        2.9389163889        1.9211896381
 C         -7.0521347200        1.4316747249        0.7240635267
 H         -7.7998680923        1.5345825627        1.5131659205
 H         -7.4920404257        1.8259098210       -0.1925982469
 C         -6.7855849343       -0.0651100540        0.5549791314
 H         -6.2584279701       -0.4449673457        1.4336050600
 H         -7.7493075056       -0.5786054120        0.5038436742
 C         -5.9895977840       -0.4640137746       -0.6939314838
 H         -6.4504820083       -0.0229500726       -1.5801476915
 H         -6.0393512997       -1.5528321691       -0.7858555047
 H         -4.3455880445        3.6064753088        0.3337340069
 H         -5.9682439210        3.8674965138       -0.3197117625
 H         -4.2936745560        2.9249950417       -1.9552402162
 H         -5.7734650568        1.9594772115       -1.7919740445
 O         -2.7143594852        1.3877805759       -0.8857443169
 C         -1.7642127550        0.4280246491       -0.5462795512
 O         -0.5971721538        0.8602412538       -0.5621141601
 O         -4.0212666266       -2.3485234132        0.0073692144
 C         -1.2511925770       -1.9811038284        0.1167606672
 C         -0.1563260594       -1.5168856745        1.0405146180
 C         -0.4393999350       -1.5131745337        2.4059709022
 C          0.4872513742       -1.0677453235        3.3284874923
 C          1.7255803005       -0.6151170328        2.9115265926
 C          2.0254566704       -0.6164247412        1.5547165404
 C          1.0908496390       -1.0677237637        0.6326415531
 H          1.3496440136       -1.0057196442       -0.4063752124
 N          3.3030730962       -0.2119080478        1.1180238885
 S          3.5293197823        0.7608640706       -0.2431951659
 O          3.0626036434        2.1059291435        0.0162627132
 O          3.0194813746        0.0981387971       -1.4141004608
 C          5.3136514698        0.7500618928       -0.2960874143
 C          5.9451613532       -0.3807578282       -0.7777762296
 C          7.3299454977       -0.4140433415       -0.8095510379
 C          8.0575229792        0.6785632819       -0.3612668988
 C          7.4105292706        1.8074948474        0.1174391478
 C          6.0251520904        1.8458574833        0.1527110686
 H          5.4791052122        2.7051335254        0.5077918500
 H          7.9782955283        2.6568558237        0.4618228890
 H          9.1353701344        0.6508881016       -0.3884573850
 H          7.8361511689       -1.2891266351       -1.1840695424
 H          5.3380949720       -1.2009655009       -1.1238388449
 H          3.8433439722        0.1860211201        1.8762383045
 H          2.4518978707       -0.2614348431        3.6281157480
 H          0.2427729974       -1.0683589748        4.3801407939
 H         -1.4098835454       -1.8553025698        2.7392529974
 H         -1.8700159614       -2.6843460640        0.6985104783
 C         -0.8977963668       -2.7449066190       -1.1554308902
 C         -0.0276938856       -2.2398023423       -2.2652829268
 C          0.4180106467       -3.4044971638       -1.4304703503
 H          0.4083035076       -4.3855588120       -1.8818945839
 H          1.2221956444       -3.2501704284       -0.7288389147
 H         -0.3509084745       -2.4329065792       -3.2790364519
 H          0.4630653576       -1.2846822053       -2.1576278106
 H         -1.7767955248       -3.2928759791       -1.4871641130
