  62
        -98.93922622
 C         -2.6682663314       -1.2528281413       -0.2976865400
 C         -2.5654934132       -0.0409760792       -1.0227974778
 C         -3.7800580381        0.7872687594       -1.0584557250
 C         -4.8913700655        0.3600045655       -0.4324501933
 C         -6.1732345917        1.1342513164       -0.3355085577
 C         -6.1985195421        2.0057269597        0.9282274266
 C         -4.9358847035        2.8446573130        1.1270619041
 H         -5.0799446390        3.4387481161        2.0322236865
 H         -4.0893928835        2.1790392350        1.3128844834
 C         -4.5998390226        3.7751172322       -0.0467932182
 H         -5.4809167448        3.9117510567       -0.6748919649
 H         -4.3296308382        4.7555875832        0.3509254474
 C         -3.4282917313        3.3075975325       -0.9124071984
 H         -3.1392926542        4.1335648046       -1.5677351297
 H         -2.5694625090        3.0791849880       -0.2756607324
 C         -3.7035879996        2.0899833471       -1.8036148712
 H         -4.6121765587        2.2567405956       -2.3854696519
 H         -2.8632776769        1.9894145973       -2.4966022887
 H         -7.0692136506        2.6620449641        0.8778094439
 H         -6.3147896534        1.3529477709        1.7965111366
 H         -6.2843138654        1.7566396006       -1.2211536718
 H         -7.0017360833        0.4252663031       -0.2937219351
 O         -4.9567187325       -0.8192259375        0.2375006211
 C         -3.8476767270       -1.6412073388        0.3398175668
 O         -4.0354894040       -2.6765345642        1.0106052860
 O         -1.5210210603        0.3358276522       -1.6151337064
 C         -1.4641803913       -2.1687226318       -0.1473970960
 C         -0.4193687542       -1.4415022650        0.6645194398
 C         -0.6604346571       -1.2344514716        2.0205080937
 C          0.2450049277       -0.5417246470        2.8006740196
 C          1.4048024905       -0.0294701688        2.2446817428
 C          1.6531520621       -0.2271959913        0.8935714129
 C          0.7498107619       -0.9425975011        0.1148843647
 H          0.9517174948       -1.0839963619       -0.9351074775
 N          2.8103164148        0.3188915756        0.3066104268
 S          4.2801544117        0.1119998756        1.1094071789
 O          4.4869418300       -1.2853092216        1.4227911848
 O          4.3262113121        1.0191502761        2.2285260849
 C          5.4228798857        0.6475423281       -0.1477537198
 C          5.5622285444        2.0041040979       -0.3722942258
 C          6.4308294182        2.4324892554       -1.3631502798
 C          7.1409778571        1.5028792437       -2.1087404537
 C          6.9908015272        0.1450011970       -1.8711208856
 C          6.1223411050       -0.2905677622       -0.8823279725
 H          5.9795126524       -1.3355394398       -0.6579968259
 H          7.5460522272       -0.5747435003       -2.4508581193
 H          7.8175892303        1.8392796793       -2.8784009191
 H          6.5515925304        3.4873254145       -1.5503589426
 H          4.9961189363        2.6895306578        0.2365235477
 H          2.8965637544        0.0533964450       -0.6653006521
 H          2.1184860789        0.5142672839        2.8419594195
 H          0.0469813361       -0.3934200451        3.8519598859
 H         -1.5733836748       -1.6233749151        2.4517644755
 H         -1.8107993391       -3.0287479644        0.4419681304
 C         -0.9748375037       -2.6651530967       -1.4909175404
 C         -0.0767314574       -3.8630669255       -1.5521551010
 C         -1.4966507579       -3.9654558660       -2.0203208260
 H         -1.6859302729       -4.0511703839       -3.0798019608
 H         -2.2014968916       -4.5070581944       -1.4063633638
 H          0.7096107012       -3.8833889639       -2.2913776230
 H          0.1859019537       -4.3367782352       -0.6180973568
 H         -0.8139935978       -1.8682428637       -2.2065428718
