  62
        -98.93013370
 C          2.3741859411        0.9637139697        0.5722283286
 C          3.4251940210        0.8965667691       -0.3741010514
 C          4.6329165609        0.1732902990        0.0558639088
 C          4.6853963908       -0.3862609806        1.2768912290
 C          5.8538580606       -1.1122142506        1.8897365992
 C          6.2710105903       -2.4319882710        1.2126538097
 C          7.3848334403       -2.2834086216        0.1687738096
 H          7.9602138305       -1.3847007317        0.3943809792
 H          8.0712268601       -3.1271078117        0.2654052899
 C          6.9282665303       -2.2445795521       -1.2927979904
 H          6.6948309400       -3.2600947421       -1.6209812400
 H          7.7667353003       -1.8893234725       -1.8958078406
 C          5.7046423304       -1.3763558419       -1.5864024007
 H          4.8009807303       -1.8856980615       -1.2427045005
 H          5.6080450804       -1.2777976023       -2.6695432307
 C          5.7419958008        0.0242728084       -0.9449830912
 H          6.7076157909        0.2077376083       -0.4763721113
 H          5.5786932609        0.7871143081       -1.7087279415
 H          6.6322638702       -3.0914810808        2.0033979399
 H          5.3952576802       -2.9072370209        0.7714004799
 H          6.7101551608       -0.4344596408        1.9188314689
 H          5.5576193906       -1.3191959702        2.9201258993
 O          3.6455457308       -0.3145008400        2.1523332890
 C          2.4779637010        0.3480814201        1.8237621788
 O          1.6128609310        0.3314628007        2.7233352189
 O          3.3904130711        1.4133017487       -1.5219760116
 C          1.0622602712        1.6897592699        0.3188978684
 C          0.1066225010        0.8387574698       -0.4841796913
 C          0.3954086209        0.4543401893       -1.7891018311
 C         -0.5043689893       -0.3119742408       -2.5075596808
 C         -1.7053404694       -0.7080293203       -1.9459129906
 C         -2.0036609793       -0.3294421397       -0.6440502608
 C         -1.0998014791        0.4430914503        0.0750560089
 H         -1.3293745790        0.7269890407        1.0936108688
 N         -3.2153687594       -0.7422988292       -0.0608855806
 S         -4.6041758094       -0.6163935593       -1.0175614405
 O         -4.7029249797       -1.7996757496       -1.8348627301
 O         -4.6004201691        0.6427138105       -1.7274792210
 C         -5.8849492493       -0.6257683785        0.2212818695
 C         -6.3437988890        0.5796236618        0.7183534691
 C         -7.3243913690        0.5711854824        1.6976178791
 C         -7.8246700292       -0.6358762374        2.1625716996
 C         -7.3545521395       -1.8373265577        1.6534943500
 C         -6.3746992296       -1.8362194182        0.6733943400
 H         -5.9864367198       -2.7440669285        0.2420890703
 H         -7.7485228097       -2.7731348774        2.0157373904
 H         -8.5882791292       -0.6395866869        2.9242594896
 H         -7.6943581987        1.5035894326        2.0927719188
 H         -5.9346829188        1.4943031015        0.3197374887
 H         -3.3589568792       -0.3330252689        0.8521927293
 H         -2.4176821796       -1.2987325003       -2.4996463004
 H         -0.2689824195       -0.6046321412       -3.5200772307
 H          1.3337017309        0.7536350089       -2.2300791413
 H          0.6172447513        1.8411412204        1.3116831183
 C          1.2453238415        3.0479164396       -0.3309279921
 C          0.1604770618        4.0704929099       -0.1867761925
 C          1.4620597518        4.2508015599        0.5343735374
 H          2.1426760220        5.0153199896        0.1914016271
 H          1.4778183818        4.1007118503        1.6043482275
 H         -0.0568961081        4.7117883597       -1.0270304527
 H         -0.7084318683        3.8000762803        0.3942960777
 H          1.7796530815        3.0080395492       -1.2702704221
