  62
        -98.94238903
 C         -1.8589046799       -1.1419028796       -0.6270599703
 C         -1.8766988798        0.2683270503       -0.5019957294
 C         -3.2038872799        0.8967788604       -0.5757284784
 C         -4.2891244100        0.1267870705       -0.7756311784
 C         -5.7024192900        0.6303732106       -0.8151012875
 C         -6.3451939894        0.5872386296        0.5783881227
 C         -5.4837159189        1.2126368689        1.6756104028
 H         -6.0503653285        1.1523487383        2.6074018030
 H         -4.5823637189        0.6098456188        1.8087375720
 C         -5.0824787390        2.6710829890        1.4140653336
 H         -5.7366709693        3.1047313696        0.6568240142
 H         -5.2267784286        3.2434870584        2.3328464241
 C         -3.6238351692        2.8621973293        0.9941937331
 H         -2.9686705589        2.3469614788        1.7012939825
 H         -3.3921051191        3.9291201793        1.0503217537
 C         -3.2701534398        2.3902594602       -0.4218588273
 H         -3.9699938701        2.8225523607       -1.1397351468
 H         -2.2668078799        2.7587064804       -0.6534131175
 H         -7.3072406094        1.1007830197        0.5311794835
 H         -6.5304086393       -0.4567912905        0.8418991221
 H         -5.7102040201        1.6484984908       -1.1991581868
 H         -6.2762259203       -0.0073831990       -1.4896471277
 O         -4.2272215500       -1.2226572894       -0.9155466894
 C         -3.0169212900       -1.8913826995       -0.8288988403
 O         -3.1025349601       -3.1312965494       -0.9425498911
 H          2.0740019803       -1.1088952701       -0.1172599920
 C          1.4866603007       -1.1297426307        0.7846335483
 C          0.1606131507       -1.5284138906        0.7484846886
 C         -0.5533314088       -1.5854865014        1.9431176488
 C          0.0414643917       -1.2278859522        3.1370880188
 C          1.3568650917       -0.7982860223        3.1662085386
 C          2.0815800312       -0.7483607415        1.9810279183
 N          3.3990884912       -0.2895826815        1.9877514180
 S          4.4646564707       -0.2378210307        0.7233661376
 O          4.4330558703       -1.4651682002       -0.0367524032
 O          5.7328782809        0.0850880489        1.3410622273
 C          3.9997710303        1.1216544601       -0.3414864213
 C          2.7581538403        1.7221309201       -0.2958876503
 C          2.4866043299        2.7597055506       -1.1764557295
 C          3.4493843596        3.1821610112       -2.0781721696
 C          4.6940724995        2.5709776912       -2.1097705306
 C          4.9706485199        1.5324286806       -1.2367745214
 H          5.9252416999        1.0309614306       -1.2259593521
 H          5.4449804292        2.8979769117       -2.8110676207
 H          3.2288121893        3.9889163217       -2.7593828090
 H          1.5110114899        3.2186014406       -1.1512201688
 H          1.9974385906        1.3870352296        0.3901816998
 H          3.7778874016        0.0310360079        2.8630700281
 H          1.8168634621       -0.4998160829        4.0954635886
 H         -0.5256440479       -1.2736907528        4.0548391890
 H         -1.5865316189       -1.9058172114        1.9190234191
 C         -0.5381326399       -1.8851350897       -0.5405529514
 H         -0.7860883099       -2.9563735097       -0.5170122920
 C          0.2947948296       -1.6030240189       -1.7739498515
 C          1.3064193094       -2.6008640286       -2.2486129026
 C          0.0410901290       -2.3894638081       -3.0232279820
 H          0.0958258787       -1.8801625874       -3.9735872616
 H         -0.7201369309       -3.1551179481       -2.9810033821
 H          2.2363334392       -2.2384083883       -2.6611069828
 H          1.4103851696       -3.5148161290       -1.6832505333
 H          0.5268732496       -0.5496447088       -1.8872364709
 O         -0.8434757497        0.9656188801       -0.3345193793
