  62
        -98.94232076
 C         -1.9891581207       -1.3324600019       -0.1296236089
 C         -3.0871155068       -1.2137192255        0.7629724933
 C         -4.2797014680       -0.5352797363        0.2461627968
 C         -4.2930288127       -0.0889257452       -1.0224734443
 C         -5.4420207442        0.5970959582       -1.7100749279
 C         -5.5210136136        2.1056827400       -1.4387249759
 C         -5.9833994598        2.4900931290       -0.0326650313
 H         -6.2030394301        3.5594949226       -0.0489277838
 H         -6.9140202951        1.9703613918        0.1972677474
 C         -4.9518037886        2.2155536844        1.0707149340
 H         -3.9654877501        2.0748706131        0.6219277128
 H         -4.8807190077        3.0854890589        1.7275700013
 C         -5.2711259953        1.0076775771        1.9518921030
 H         -4.4575587416        0.8850905691        2.6714798551
 H         -6.1903035192        1.1953432329        2.5112692421
 C         -5.4271863898       -0.3112720652        1.1837241358
 H         -6.3712101042       -0.3201807292        0.6391841307
 H         -5.4307383796       -1.1306977799        1.9065854801
 H         -4.5411165164        2.5480972857       -1.6333110945
 H         -6.2252622676        2.5297230414       -2.1582935092
 H         -6.3795565472        0.1240856835       -1.4164613323
 H         -5.2974327700        0.4473151998       -2.7822662302
 O         -3.2303917604       -0.2356037919       -1.8545537982
 C         -2.0468670773       -0.8312833037       -1.4305711706
 O         -1.1597441437       -0.8407106397       -2.3051855523
 O         -3.0716839067       -1.6674083599        1.9380847029
 C         -0.7549027434       -2.0364391742        0.4071413626
 C          0.2562735431       -1.0545802962        0.9415121420
 C          0.8119877183       -1.2159907041        2.2051723031
 C          1.7487936608       -0.3159540048        2.6839964811
 C          2.1529775592        0.7584384723        1.9125476725
 C          1.6055542473        0.9265682556        0.6465845098
 C          0.6667832946        0.0234415407        0.1688740273
 H          0.2496772569        0.1561236544       -0.8185655016
 N          2.0170978491        2.0074810135       -0.1531356518
 S          3.6644199129        2.2787626258       -0.2852338115
 O          4.1237075471        3.0099948248        0.8696727405
 O          3.8446313727        2.9357589860       -1.5602517587
 C          4.4007219135        0.6540212211       -0.3021374904
 C          4.0791440491       -0.1932462303       -1.3441917038
 C          4.6054484155       -1.4748490459       -1.3527474383
 C          5.4374169135       -1.8859083696       -0.3225064977
 C          5.7550624585       -1.0216590877        0.7135318044
 C          5.2316291294        0.2613675779        0.7273362061
 H          5.4510748764        0.9650996087        1.5135172110
 H          6.4040662898       -1.3434950772        1.5118464709
 H          5.8387059244       -2.8868375639       -0.3297631505
 H          4.3568820321       -2.1486621432       -2.1568315999
 H          3.4298338435        0.1568572212       -2.1316098398
 H          1.5716560751        2.0285665793       -1.0589525609
 H          2.8743096521        1.4743471167        2.2716354301
 H          2.1676439739       -0.4505424963        3.6692984578
 H          0.4939903443       -2.0457620324        2.8189739636
 H         -1.1251549327       -2.6235960853        1.2622993233
 C         -0.1520033776       -3.0206541690       -0.5870813713
 C          1.1475435013       -2.7999006232       -1.2949312239
 C          1.0550861119       -3.8283102091       -0.2106717223
 H          1.0817827302       -4.8731425222       -0.4796976330
 H          1.5295850841       -3.5989953700        0.7313674766
 H          1.2152140131       -3.1248582117       -2.3218817365
 H          1.6943074875       -1.8934876613       -1.0890348681
 H         -0.9224609544       -3.5337613407       -1.1544886730
