  62
        -98.93907264
 C          2.6961615497        1.0654116470       -0.3745682024
 C          2.4081334339       -0.1378558724       -1.0630848236
 C          3.3510978562       -1.2456797593       -0.8444671970
 C          4.4139498073       -1.0675752039       -0.0402889838
 C          5.4111519951       -2.1301971150        0.3173969783
 C          4.9938517286       -2.8746879606        1.5935741066
 C          3.5406512621       -3.3495484808        1.5853458758
 H          3.3695940148       -3.8869890058        2.5206513942
 H          2.8806180369       -2.4787358079        1.5915971776
 C          3.1748802387       -4.2550170893        0.4008448427
 H          4.0820416524       -4.6588800204       -0.0500783285
 H          2.5939059430       -5.1009334598        0.7741137192
 C          2.3305244671       -3.5767761728       -0.6796103316
 H          1.4683112153       -3.0891931248       -0.2173432737
 H          1.9491313776       -4.3524123087       -1.3489835447
 C          3.0621209037       -2.5434730054       -1.5457335240
 H          2.4091105527       -2.2916954212       -2.3862824776
 H          3.9805884872       -2.9795368018       -1.9431962735
 H          5.1293280218       -2.2041939277        2.4454699721
 H          5.6578116836       -3.7308352320        1.7263420678
 H          5.5027495091       -2.8300239134       -0.5108892651
 H          6.3774834249       -1.6520299814        0.4859994030
 O          4.6736264031        0.1081327796        0.5855234060
 C          3.8235080703        1.1894939297        0.4453208961
 O          4.1770164922        2.2003675388        1.0849789587
 O          1.4202414304       -0.3079598397       -1.8276772280
 C          1.8189422318        2.3059146257       -0.4599131058
 C          0.5965240634        2.1585525196        0.4159725508
 C          0.4372387074        2.9507928709        1.5468919663
 C         -0.6812602480        2.8138991810        2.3504229426
 C         -1.6578284859        1.8819143950        2.0487868409
 C         -1.5056480664        1.0816333825        0.9235847498
 C         -0.3900075892        1.2315709053        0.1108660082
 H         -0.2685350148        0.6005769711       -0.7572311528
 N         -2.4684162440        0.0984604345        0.6209970179
 S         -4.0928454105        0.5552516452        0.6770512649
 O         -4.3026784580        1.7593010613       -0.0968756360
 O         -4.5009324449        0.6196120250        2.0583330303
 C         -4.8670059521       -0.8399203823       -0.1143352490
 C         -5.2489092689       -0.7462660003       -1.4387705897
 C         -5.8350993165       -1.8456929510       -2.0462832785
 C         -6.0244697575       -3.0140115955       -1.3238121302
 C         -5.6343640943       -3.0928969264        0.0050123463
 C         -5.0495731551       -1.9969965333        0.6189680760
 H         -4.7400404290       -2.0092173950        1.6509177641
 H         -5.7849013448       -4.0027873444        0.5632799015
 H         -6.4812646562       -3.8678125008       -1.7989198906
 H         -6.1411947677       -1.7867259824       -3.0783873853
 H         -5.0889255336        0.1843157122       -1.9594941297
 H         -2.2612578612       -0.3591753796       -0.2571986964
 H         -2.5345276405        1.7680103800        2.6655746487
 H         -0.7937768988        3.4380118304        3.2243992544
 H          1.2033592719        3.6699311260        1.7994582412
 H          2.4254345441        3.1232684570       -0.0477094882
 C          1.4387988643        2.6671749647       -1.8829679666
 C          1.0028838642        4.0684277082       -2.1828627972
 C          2.3314402955        3.5754435611       -2.6711255576
 H          2.4573330541        3.3854745565       -3.7264396058
 H          3.2227171662        3.9454214618       -2.1851051416
 H          0.2124470607        4.2192982315       -2.9020836227
 H          0.9928876421        4.7745232841       -1.3661239468
 H          0.9535170923        1.8630603800       -2.4194715014
