  62
        -98.94164899
 C         -2.0526886723       -1.5222466644        0.0553203545
 C         -2.3198170660       -0.5994327424       -0.9860641584
 C         -3.6514210571        0.0287502992       -0.9619931527
 C         -4.5209933305       -0.2874608294        0.0133639808
 C         -5.8817762007        0.3214260379        0.1848164144
 C         -5.8287368085        1.5539099466        1.0983512675
 C         -4.7343501922        2.5537598296        0.7244011378
 H         -4.8124617819        3.3953999779        1.4161569328
 H         -3.7576492991        2.0929798766        0.8909343640
 C         -4.8122407321        3.0701229475       -0.7192331119
 H         -4.6609913296        4.1517164536       -0.7123290960
 H         -5.8071740647        2.8850965774       -1.1257479072
 C         -3.7619119864        2.4801787520       -1.6621754360
 H         -2.7705646902        2.5827724163       -1.2129674017
 H         -3.7647957062        3.0682961432       -2.5839156916
 C         -3.9662788792        1.0114157970       -2.0551294598
 H         -4.9845697745        0.8676855156       -2.4216202731
 H         -3.2722438734        0.7867855938       -2.8703867165
 H         -6.8013065370        2.0484512963        1.0679003393
 H         -5.6496713320        1.2187498085        2.1226109536
 H         -6.2771255671        0.5963363130       -0.7911564143
 H         -6.5378259249       -0.4253097806        0.6353249181
 O         -4.2324995249       -1.1787367659        0.9950979014
 C         -3.0008861974       -1.8078040803        1.0431596441
 O         -2.8710139416       -2.6000475439        1.9976752265
 O         -1.5049680319       -0.2949160795       -1.8957940769
 C         -0.7397857540       -2.2799159265        0.1830508267
 C          0.3103960559       -1.4533069538        0.8794295894
 C          1.0242885409       -1.9648183930        1.9565626549
 C          1.9940839088       -1.2028727270        2.5855823399
 C          2.2741412741        0.0801975001        2.1516317570
 C          1.5687137176        0.5989055579        1.0729969724
 C          0.5973404447       -0.1664696311        0.4441385236
 H          0.0576040692        0.2388402136       -0.3988194662
 N          1.8534767018        1.8977565281        0.6129658076
 S          3.4636112458        2.2739178787        0.3446382697
 O          4.1002153895        2.5784695462        1.6019152004
 O          3.4516715601        3.3386149840       -0.6328031779
 C          4.1668205622        0.7886170219       -0.3483631243
 C          3.7339691202        0.3903418015       -1.5978358331
 C          4.2243604818       -0.7899669975       -2.1324307750
 C          5.1295542561       -1.5511731980       -1.4088125771
 C          5.5572168243       -1.1356584161       -0.1575298063
 C          5.0718224950        0.0451776478        0.3814416650
 H          5.3785944943        0.4051365086        1.3497239327
 H          6.2627872098       -1.7287040528        0.4015872287
 H          5.5017247391       -2.4737974539       -1.8249404595
 H          3.8913723993       -1.1152231813       -3.1048546848
 H          3.0289782801        1.0058026293       -2.1344469472
 H          1.2850050201        2.1754775038       -0.1740787049
 H          3.0202361336        0.6909853270        2.6334194809
 H          2.5366453025       -1.6111670982        3.4243329756
 H          0.8041841965       -2.9617844129        2.3091708351
 H         -0.9705547938       -3.1363707762        0.8354472834
 C         -0.2596723924       -2.8482166825       -1.1473421785
 C          0.9326995834       -2.3387114208       -1.8935599697
 C          0.9969926681       -3.6659832281       -1.2039955331
 H          1.0021613045       -4.5650935551       -1.8010189509
 H          1.5869548420       -3.7280463162       -0.3020414740
 H          0.8689842301       -2.3112958551       -2.9705601412
 H          1.4917322551       -1.5194398337       -1.4701175004
 H         -1.0911926701       -3.1935944269       -1.7539635745
