  62
        -98.94454099
 C         -2.0428050765       -0.8744942266       -0.3955314892
 C         -1.2164233078       -1.7589237268       -1.1320435665
 C         -0.4262245733       -2.7131584196       -0.3502299154
 C         -0.5093296205       -2.7011648016        0.9921679742
 C          0.2590879481       -3.5889087582        1.9326332398
 C          1.6696058436       -3.0646218166        2.2376468397
 C          2.6846236067       -3.2406955224        1.1068954496
 H          3.6732838437       -3.0641528978        1.5351376167
 H          2.6602596120       -4.2723962324        0.7534177077
 C          2.4829643316       -2.2799203775       -0.0734193646
 H          3.4465352328       -1.8561332587       -0.3661381784
 H          1.8551274276       -1.4440020213        0.2469791316
 C          1.8755305233       -2.9203382373       -1.3216582137
 H          1.7316836284       -2.1364948345       -2.0695473079
 H          2.5723992990       -3.6551730213       -1.7309488870
 C          0.5241627231       -3.6074800720       -1.0885596535
 H          0.0812283371       -3.8298789354       -2.0626676184
 H          0.6646679331       -4.5417953045       -0.5455911218
 H          2.0359419008       -3.5994825507        3.1174537611
 H          1.5956117815       -2.0042929597        2.4951484931
 H         -0.3072436234       -3.6208045047        2.8659645991
 H          0.3203828147       -4.5990615020        1.5261471528
 O         -1.3331792090       -1.8576118881        1.6644838525
 C         -2.0667894666       -0.8846675010        1.0014270245
 O         -2.7012672865       -0.1283974252        1.7618405152
 H         -0.3130463087        1.0052315616       -0.5910776423
 C         -1.0234888558        1.7762868771       -0.3287682542
 C         -2.3756883668        1.5538040268       -0.5665170894
 C         -3.2825282869        2.5451605792       -0.2214940041
 C         -2.8417409572        3.7130122205        0.3790514958
 C         -1.5037704894        3.9033410414        0.6670941601
 C         -0.5854901420        2.9176876182        0.3177271766
 N          0.7825682935        3.0766766785        0.5941960192
 S          1.7523709956        1.8017419208        1.0890381466
 O          0.9870672610        0.6278822195        1.4344867367
 O          2.5917226130        2.3433938824        2.1389451893
 C          2.7878945035        1.4519412020       -0.3209290741
 C          2.3450848180        1.6885856426       -1.6061690289
 C          3.1760194942        1.3700133784       -2.6699718831
 C          4.4288495743        0.8263145599       -2.4347520843
 C          4.8630579144        0.6010524754       -1.1376041605
 C          4.0359949342        0.9142318173       -0.0709713430
 H          4.3333504098        0.7590313517        0.9536010129
 H          5.8393155079        0.1820313018       -0.9535898564
 H          5.0697404336        0.5791992760       -3.2661729978
 H          2.8384041287        1.5476021293       -3.6785385122
 H          1.3690037488        2.1164294806       -1.7672156691
 H          1.0066909897        3.9068904119        1.1227695871
 H         -1.1681571132        4.7992112448        1.1674206461
 H         -3.5558880625        4.4761097200        0.6495856550
 H         -4.3356552747        2.3953442940       -0.3935987818
 C         -2.7521479265        0.2236006172       -1.1705533827
 H         -2.3019398041        0.1696380926       -2.1770648670
 C         -4.2476740203        0.0301003408       -1.3633735714
 C         -4.8722999155       -1.3275076033       -1.2482099527
 C         -5.1755151264       -0.2745172824       -0.2270507415
 H         -6.1576377442        0.1758005320       -0.2342320775
 H         -4.7428519073       -0.3696811549        0.7560190969
 H         -4.2320716469       -2.1479918468       -0.9571414348
 H         -5.6419849001       -1.6010583236       -1.9543966075
 H         -4.6404221354        0.6681432108       -2.1493965103
 O         -1.1292770426       -1.7365683030       -2.3902545861
