  62
        -98.93504832
 C          1.9704260192       -0.3870146633        0.0660490201
 C          3.0789329745       -1.1004338751       -0.4541511521
 C          4.3292581354       -0.3486675816       -0.6748214934
 C          4.3388935124        0.9729250307       -0.4222484104
 C          5.4906294311        1.9363589799       -0.5313707470
 C          6.4888584610        1.7985096074        0.6295173583
 C          6.8506969454        0.3624577623        0.9996315415
 H          5.9405495075       -0.1801685085        1.2616575503
 H          7.4753312564        0.3984502586        1.8961489017
 C          7.6143320664       -0.4133943084       -0.0710006698
 H          7.8849080695       -1.3804234813        0.3607994060
 H          8.5408097225        0.1160567782       -0.3043028372
 C          6.8599474773       -0.6718944259       -1.3770608361
 H          7.4201108882       -1.4308020467       -1.9311884608
 H          6.8429186379        0.2161739928       -2.0031874076
 C          5.4467245327       -1.2178969891       -1.1994543829
 H          5.4813777234       -2.0961546569       -0.5446133214
 H          5.0951143773       -1.5956746517       -2.1671764257
 H          6.0471842210        2.2681900400        1.5119798785
 H          7.3947418910        2.3501042074        0.3724761979
 H          5.0620768504        2.9407986112       -0.5042263694
 H          5.9899151381        1.8159852854       -1.4882268316
 O          3.2350336814        1.6297558050        0.0314995924
 C          2.0332570872        0.9890134934        0.2897479749
 O          1.1397978175        1.7511231787        0.7026295339
 O          3.0348139406       -2.3310958077       -0.7229452935
 C          0.6898289117       -1.1693655116        0.3020889940
 C         -0.4723856179       -0.4717335368       -0.3551069035
 C         -0.6345119005       -0.5735245673       -1.7334285296
 C         -1.6721398515        0.0775338522       -2.3740998922
 C         -2.5674338127        0.8476000684       -1.6533710524
 C         -2.4122165410        0.9575076736       -0.2779222941
 C         -1.3804712716        0.2875298879        0.3660989097
 H         -1.2589958248        0.3956565524        1.4324862961
 N         -3.3163857495        1.7430489609        0.4572420339
 S         -4.9503783114        1.5113808019        0.1937171026
 O         -5.3499941713        2.1782150261       -1.0205496238
 O         -5.6010597024        1.9587116617        1.4050825841
 C         -5.1252062172       -0.2536671340        0.0019258872
 C         -4.8846224377       -1.0501169180        1.1042449446
 C         -4.9540554643       -2.4264410915        0.9652878997
 C         -5.2560986627       -2.9805573868       -0.2695684479
 C         -5.4979121043       -2.1675583120       -1.3656570399
 C         -5.4308489657       -0.7897022234       -1.2320879694
 H         -5.6131618223       -0.1221466885       -2.0581221947
 H         -5.7343561913       -2.6014540503       -2.3238234156
 H         -5.3040318685       -4.0527499585       -0.3766831754
 H         -4.7693216977       -3.0614536736        1.8169136719
 H         -4.6595868996       -0.5839895076        2.0501318117
 H         -3.1004864436        1.8026070303        1.4409597592
 H         -3.3728319494        1.3776313449       -2.1354772058
 H         -1.7829356254       -0.0092913384       -3.4443086700
 H          0.0723740035       -1.1640463993       -2.2998424355
 H          0.8574562370       -2.1217829477       -0.2262670207
 C          0.4232247004       -1.5265183542        1.7569205623
 C          1.5546902785       -1.8863768641        2.6714788464
 C          0.7754341933       -0.6281826348        2.9030872252
 H          0.1030988275       -0.5932477552        3.7484704477
 H          1.2429699666        0.3182554397        2.6814200394
 H          1.4243041021       -2.7094801004        3.3576358881
 H          2.5570905944       -1.7992419882        2.2781296028
 H         -0.4863439612       -2.1102516425        1.8628283342
