  62
        -98.94070848
 C          2.4503341700        1.0962203904       -0.2349710904
 C          2.0833918200       -0.2714899996       -0.2157382600
 C          3.0272052201       -1.1738447194        0.4574498201
 C          4.1399237502       -0.6793983993        1.0287551998
 C          5.1875468803       -1.4706936791        1.7639113798
 C          6.2328107102       -2.1250131293        0.8497180299
 C          5.7347928401       -3.3262599294        0.0449607202
 H          5.2552884103       -4.0384967093        0.7171650704
 H          6.6151515401       -3.8166274095       -0.3751830698
 C          4.7761430000       -2.9691144297       -1.0994854998
 H          5.0705962099       -3.5084279299       -2.0025505997
 H          4.8568159299       -1.9027974098       -1.3224424500
 C          3.3102622000       -3.3071890697       -0.8277726095
 H          3.1944375201       -4.3891832997       -0.7336356093
 H          2.7176409799       -2.9776570399       -1.6847782295
 C          2.7333776902       -2.6436498695        0.4295657904
 H          3.1260138603       -3.1265087893        1.3242881305
 H          1.6470109002       -2.7637277795        0.4170787806
 H          7.0570747803       -2.4573024491        1.4849847098
 H          6.6239054601       -1.3663263394        0.1679769896
 H          4.7072582504       -2.2346353690        2.3761263601
 H          5.6998023004       -0.7678444089        2.4245082096
 O          4.4388479601        0.6470858207        1.0180595395
 C          3.6112612500        1.5601876306        0.3876821794
 O          4.0108599700        2.7403846006        0.4490830591
 O          1.0317746800       -0.7289642298       -0.7352702198
 C          1.5612330398        2.1385619302       -0.8953992405
 C          0.2823085899        2.2267799503       -0.0987863403
 C          0.2897175801        2.9182212006        1.1097562795
 C         -0.8386759698        2.9583323607        1.9065782096
 C         -1.9957246099        2.3036552606        1.5201822699
 C         -2.0089839900        1.6040052604        0.3219165001
 C         -0.8789404001        1.5789066502       -0.4861995300
 H         -0.8987784702        1.0191374700       -1.4075038299
 N         -3.1788089400        0.9305853502       -0.0823681296
 S         -3.9613540098        0.0020180305        1.0935168907
 O         -4.7877285998        0.8782875206        1.8870052706
 O         -3.0042757397       -0.7944912693        1.8289092907
 C         -4.9889805799       -1.0374034098        0.0741135510
 C         -4.4530557000       -2.2044647199       -0.4373296188
 C         -5.2397793000       -3.0011195101       -1.2541069185
 C         -6.5404476501       -2.6178270702       -1.5461992584
 C         -7.0635849801       -1.4436293301       -1.0259137886
 C         -6.2824862300       -0.6424241599       -0.2080539289
 H         -6.6465574200        0.2746520602        0.2246629110
 H         -8.0755501901       -1.1505185802       -1.2541233185
 H         -7.1499145301       -3.2407038804       -2.1817040682
 H         -4.8355401001       -3.9152814202       -1.6584013684
 H         -3.4398121999       -2.4692289098       -0.1776536288
 H         -3.0114929101        0.3724230401       -0.9094865995
 H         -2.8778150398        2.3092721107        2.1401479000
 H         -0.8182404497        3.4981655809        2.8416866995
 H          1.2007812701        3.4102059707        1.4229109493
 H          2.0913727098        3.0948864602       -0.7946339108
 C          1.3564860597        1.8465325099       -2.3668998604
 C          0.8179029295        2.9213981697       -3.2610889306
 C          2.2521677995        2.5020268697       -3.3727806606
 H          2.5581985494        1.9325592795       -4.2375775906
 H          3.0130669895        3.1729497698       -3.0013722409
 H          0.1382981194        2.6436145495       -4.0520714804
 H          0.6032076295        3.8792539698       -2.8119684707
 H          1.0602706097        0.8237759398       -2.5639365501
