  62
        -98.93761857
 C          2.6579382944        1.1004510892        0.1980407405
 C          2.7187412335        0.2257917448       -0.9127217331
 C          3.4956026841       -1.0113235730       -0.7224608394
 C          4.0990487917       -1.2396136701        0.4564828388
 C          4.9613643410       -2.4120310089        0.8516821032
 C          4.4679278810       -3.8129387872        0.4597511618
 C          2.9417040300       -3.9776948151        0.4095555358
 H          2.4554910929       -3.1178771447        0.8743648578
 H          2.6619295770       -4.8601267744        0.9883354059
 C          2.4065722218       -4.1612188298       -1.0130646208
 H          1.4211531827       -4.6301440346       -0.9589785038
 H          3.0663801134       -4.8485127079       -1.5469952348
 C          2.2530357052       -2.8790782806       -1.8309547498
 H          1.4227571062       -2.2842828236       -1.4396180836
 H          1.9883596745       -3.1619864689       -2.8524284618
 C          3.4927284881       -1.9709751426       -1.8771150762
 H          3.4254909597       -1.3578149556       -2.7796729260
 H          4.4089361041       -2.5547874685       -1.9190283750
 H          4.8843507285       -4.5095032431        1.1892701710
 H          4.8840039557       -4.0873424324       -0.5086260711
 H          5.9608747405       -2.2555279680        0.4362182576
 H          5.0505347186       -2.3454528881        1.9386306172
 O          4.0184183570       -0.3633512948        1.4990482638
 C          3.2889102816        0.8100358144        1.4049643452
 O          3.2741053832        1.4935760299        2.4502529392
 H          0.3569055224        0.4346968526        1.1380234168
 C         -0.2068855719        1.0067010741        0.4096830840
 C          0.4136399162        2.0648286861       -0.2431322175
 C         -0.3286263738        2.8012927955       -1.1567926579
 C         -1.6454211333        2.4663923286       -1.4224099682
 C         -2.2495838641        1.3963938383       -0.7890037151
 C         -1.5218580732        0.6620457735        0.1384571713
 N         -2.1200356751       -0.4364383929        0.7806749466
 S         -3.6174580394       -0.2156467326        1.5077617624
 O         -3.7968489524        1.1493676364        1.9455315467
 O         -3.6921318700       -1.2345676494        2.5322642435
 C         -4.7811513033       -0.6038718413        0.2178152235
 C         -5.7670286130        0.3032195818       -0.1176186701
 C         -6.6690301365       -0.0273616823       -1.1171843696
 C         -6.5697876774       -1.2523196741       -1.7589031551
 C         -5.5747475540       -2.1529528960       -1.4085776544
 C         -4.6708174715       -1.8293698879       -0.4094936367
 H         -3.8852255709       -2.5011600015       -0.1058338108
 H         -5.4999783191       -3.1042556001       -1.9103803693
 H         -7.2718349203       -1.5071953354       -2.5370123088
 H         -7.4432872159        0.6711182416       -1.3911092789
 H         -5.8014621441        1.2458756619        0.4049053593
 H         -1.4965492248       -0.9328140186        1.4005188741
 H         -3.2712682626        1.1267719458       -1.0010738287
 H         -2.2078357495        3.0444023351       -2.1396184847
 H          0.1254403967        3.6358412082       -1.6651801008
 C          1.8496014582        2.3806977904        0.1036889033
 H          1.8647666699        2.8265734621        1.1098258731
 C          2.5064367114        3.3425506013       -0.8650027569
 C          2.3887237533        4.8222483841       -0.6610694582
 C          3.6929983508        4.1314646843       -0.4022796255
 H          4.5087581242        4.2895054403       -1.0915513889
 H          4.0082380306        3.9949517510        0.6223781467
 H          1.8216477690        5.1669994104        0.1905989671
 H          2.3124475567        5.4584966061       -1.5299204690
 H          2.5225767229        2.9620201239       -1.8796889977
 O          2.1550467043        0.4631651245       -2.0113103046
