  62
        -98.93767231
 C          1.8793586000        0.8632421505       -0.0448227107
 C          2.4303764000       -0.4214628994        0.1699764301
 C          3.8505154300       -0.4611384892        0.5633996800
 C          4.5319656600        0.6893190809        0.6999108893
 C          5.9642591101        0.8884775411        1.1293518391
 C          7.0186022200       -0.0629567693        0.5478921397
 C          6.7412014899       -0.5413418102       -0.8846971100
 H          7.6315745399       -0.3740179806       -1.4936718902
 H          5.9311615499        0.0426193196       -1.3249917603
 C          6.3946089699       -2.0302609202       -0.9596712991
 H          7.0716078499       -2.5810884499       -0.3029547188
 H          6.5714068398       -2.3813248109       -1.9792362489
 C          4.9519053399       -2.3868666300       -0.6030294588
 H          4.8698068198       -3.4763577099       -0.5824335981
 H          4.2770806198       -2.0310132304       -1.3864504590
 C          4.4435716699       -1.8297279191        0.7367239209
 H          5.2276635700       -1.8377050687        1.4900347308
 H          3.6254742999       -2.4704153189        1.0775143613
 H          7.1242780000       -0.9309357689        1.1971337302
 H          7.9717721300        0.4677798607        0.5763187893
 H          6.2038160001        1.9163510309        0.8466022585
 H          6.0012969401        0.8385145517        2.2214967592
 O          3.9565278201        1.9066340907        0.4842940386
 C          2.6308264901        2.0268353806        0.1071734286
 O          2.2436442101        3.2021721105       -0.0529614521
 H         -1.6570833801       -0.7812425999       -0.8701899695
 C         -1.4862766100       -0.5411095493        0.1654313603
 C         -0.4748635100        0.3300499809        0.5372649697
 C         -0.2927855599        0.5994442418        1.8920441396
 C         -1.0823787299       -0.0090946776        2.8470566300
 C         -2.0852916199       -0.8865260078        2.4720471406
 C         -2.2851378400       -1.1523597286        1.1239453907
 N         -3.2945522701       -2.0391495589        0.7133354413
 S         -4.3056418101       -1.6068243496       -0.5463861889
 O         -5.4635406701       -2.4598722894       -0.3926929983
 O         -3.6113874802       -1.6996606904       -1.8044918289
 C         -4.7390717800        0.0866020006       -0.1941165799
 C         -4.1251760000        1.1111392002       -0.8843522406
 C         -4.4208590600        2.4208179604       -0.5401616114
 C         -5.3188037599        2.6811675611        0.4830887885
 C         -5.9327879699        1.6399272615        1.1629078592
 C         -5.6384537800        0.3291479513        0.8259862000
 H         -6.1019038700       -0.5072105584        1.3237509505
 H         -6.6351829399        1.8466174520        1.9542364491
 H         -5.5429923199        3.7019950713        0.7496488379
 H         -3.9462589099        3.2319878001       -1.0692340419
 H         -3.4355826201        0.8681255397       -1.6756851805
 H         -3.8208646000       -2.4476906884        1.4718852516
 H         -2.6994448799       -1.3693840773        3.2168569009
 H         -0.9193781198        0.2020575430        3.8931489198
 H          0.4911024601        1.2847901719        2.1853580591
 C          0.4276886300        1.0071005003       -0.4648501607
 H          0.2137869200        2.0859912803       -0.4455054714
 C          0.2480585299        0.5016001394       -1.8812661104
 C         -0.7606361101        1.1356040589       -2.7892280007
 C          0.7027372399        1.3601453687       -3.0217735709
 H          1.1728277499        0.8851566182       -3.8698858107
 H          1.1165016400        2.3281253789       -2.7778907515
 H         -1.3324165100        1.9627303292       -2.3959291712
 H         -1.3044222701        0.5052658685       -3.4776630803
 H          0.4150591799       -0.5662901506       -1.9689289597
 O          1.7704981799       -1.4864357394        0.0519992508
