  62
        -98.94217055
 C         -1.6378227349       -1.4452204968        0.2801137565
 C         -1.3538882268       -0.3489537627       -0.5657658866
 C         -1.9819461894        0.9269108676       -0.2038093938
 C         -2.7389743025        1.0027629334        0.9050460124
 C         -3.3884861737        2.2384861162        1.4704854582
 C         -4.4844330931        2.8963176823        0.6099011781
 C         -3.9825987498        4.0237341535       -0.3007327079
 H         -4.7154392755        4.8331547901       -0.2935652254
 H         -3.0622287229        4.4298749336        0.1210002907
 C         -3.7498667918        3.6424821291       -1.7655417734
 H         -4.7132521493        3.5925146661       -2.2779685423
 H         -3.1700973949        4.4425075713       -2.2305987662
 C         -3.0357786067        2.3116181485       -2.0008072308
 H         -2.7597034182        2.2553020731       -3.0554229664
 H         -3.7276894237        1.4864051833       -1.8168713101
 C         -1.7828084766        2.0902657834       -1.1310007604
 H         -0.9282732773        1.8412757249       -1.7633789736
 H         -1.5355337729        2.9881305384       -0.5658510555
 H         -4.9949512410        2.1311066407        0.0258383679
 H         -5.2161421711        3.3172871280        1.3013434312
 H         -3.8222234174        1.9267758116        2.4232405090
 H         -2.6050491315        2.9689801561        1.6877793990
 O         -2.9743488278       -0.0741654481        1.7049699439
 C         -2.4290147085       -1.3142647526        1.4190417357
 O         -2.7159053485       -2.2079700772        2.2436026632
 H          0.5362277297       -1.2937026015        1.5857577535
 C          1.1243539355       -1.7987094807        0.8328994527
 C          0.5006933605       -2.6327745218       -0.0864369008
 C          1.2866364907       -3.2791568613       -1.0324131646
 C          2.6542442078       -3.0676937340       -1.0715419957
 C          3.2621514888       -2.1943772125       -0.1881820226
 C          2.4855546304       -1.5525520787        0.7694339284
 N          3.0486931812       -0.6383512531        1.6850188064
 S          2.5216870133        0.9514423475        1.6037172374
 O          3.3029263141        1.6535521488        2.6001802217
 O          1.0909202381        1.0103646437        1.7569258069
 C          3.0177889139        1.4971877851       -0.0211539358
 C          2.2704913013        1.1232603983       -1.1198314731
 C          2.7100760784        1.4971869711       -2.3809959913
 C          3.8787834941        2.2287755588       -2.5225570820
 C          4.6185143400        2.5941788668       -1.4076659052
 C          4.1885829483        2.2213659294       -0.1447757702
 H          4.7278812152        2.4841267659        0.7510608902
 H          5.5269314534        3.1641128975       -1.5184600868
 H          4.2135546806        2.5152972059       -3.5070637928
 H          2.1292872843        1.2065671229       -3.2418172203
 H          1.3616660186        0.5557754487       -0.9906140316
 H          4.0599441756       -0.6460758870        1.6946587908
 H          4.3244733411       -2.0079763593       -0.2364488047
 H          3.2515566444       -3.5753613208       -1.8133259005
 H          0.8263412605       -3.9438569610       -1.7450541282
 C         -0.9984467343       -2.7930050350       -0.0000938297
 H         -1.2303058376       -3.4287309290        0.8674016163
 C         -1.6073588800       -3.4148825222       -1.2405723853
 C         -1.7188114895       -4.9039724943       -1.3667278382
 C         -2.9464043773       -4.0777819928       -1.1311422527
 H         -3.6514313699       -3.9545422626       -1.9394670169
 H         -3.4048994599       -4.1042184805       -0.1529539990
 H         -1.5850270305       -5.3509414038       -2.3402989839
 H         -1.3505501626       -5.5048041604       -0.5489188922
 H         -1.4069185333       -2.8361751124       -2.1349881654
 O         -0.5983531304       -0.4290513614       -1.5707340695
