  62
        -98.93788960
 C          2.3176082087        1.3652432738        0.0060369326
 C          2.9513481313        0.4987255618        0.9273821090
 C          3.6440631149       -0.6620867021        0.3545631024
 C          3.6341162934       -0.8505764329       -0.9774919742
 C          4.3338584899       -1.9472189252       -1.7360969143
 C          3.8236640910       -3.3801963445       -1.4891726774
 C          4.5902666718       -4.1463018052       -0.4038185428
 H          4.7166337146       -5.1809529473       -0.7286982527
 H          5.5906056373       -3.7209758802       -0.3145378660
 C          3.9283392207       -4.1906203734        0.9766374266
 H          3.1197553025       -4.9252331242        0.9614300869
 H          4.6745975415       -4.5369806018        1.6948361269
 C          3.3363913317       -2.8723601584        1.4758985685
 H          2.3972387367       -2.6714986188        0.9524282819
 H          3.0798099434       -2.9918782528        2.5307170790
 C          4.2573570007       -1.6479038988        1.3060898472
 H          5.2434715889       -1.9535207009        0.9602429223
 H          4.3704726677       -1.1321438506        2.2617803556
 H          2.7579943402       -3.3528907797       -1.2599981590
 H          3.9355635196       -3.9211179462       -2.4302495581
 H          4.2000965455       -1.6997091740       -2.7910775362
 H          5.4023184303       -1.9003903689       -1.5137161909
 O          2.9915128359       -0.0055393150       -1.8284931203
 C          2.2946258864        1.1001649689       -1.3637063065
 O          1.7229956178        1.7544625427       -2.2551333087
 O          2.9392005729        0.6866273361        2.1750425888
 C          1.5569844936        2.5681216329        0.5400652213
 C          0.0828990348        2.3266039814        0.3260729337
 C         -0.7362173664        3.1372649952       -0.4466820887
 C         -2.0664457742        2.8037551141       -0.6404763238
 C         -2.6063791259        1.6663910733       -0.0688334849
 C         -1.7961519539        0.8525782765        0.7129462061
 C         -0.4680458526        1.1903919135        0.9083380245
 H          0.1654344981        0.5512764255        1.5119889557
 N         -2.3377770643       -0.3135927714        1.2965047196
 S         -2.8773883849       -1.4826445155        0.2104465302
 O         -2.8095993367       -2.7349078209        0.9329479077
 O         -2.1485595192       -1.4209173423       -1.0367455820
 C         -4.5844633792       -1.0509561426       -0.0486923190
 C         -5.0279119954       -0.7195140477       -1.3137456125
 C         -6.3610874155       -0.3810478601       -1.4880008808
 C         -7.2209157321       -0.3795756090       -0.4002332090
 C         -6.7596837445       -0.7174768022        0.8636042818
 C         -5.4288726614       -1.0583059272        1.0445314717
 H         -5.0293995389       -1.3318433205        2.0067264624
 H         -7.4314943985       -0.7156166846        1.7067355713
 H         -8.2569561817       -0.1137248604       -0.5387448178
 H         -6.7212214362       -0.1183065069       -2.4696965847
 H         -4.3199350483       -0.7275705512       -2.1272611717
 H         -1.7094435098       -0.7441786971        1.9613285110
 H         -3.6399674397        1.4024559944       -0.2230398917
 H         -2.6906809654        3.4386656107       -1.2504362256
 H         -0.3300395321        4.0203959863       -0.9111018733
 H          1.7467893446        2.5732886478        1.6233476054
 C          2.0684761739        3.8619673708       -0.0524232059
 C          1.8382941926        5.1534496854        0.6722975737
 C          3.2138299460        4.5623762683        0.6129596350
 H          3.9562455077        5.0392860261       -0.0090104423
 H          3.6186686723        4.1143224635        1.5087370658
 H          1.6368578018        6.0411499773        0.0924537155
 H          1.3083644331        5.1100060820        1.6116655648
 H          2.0420182599        3.8684769987       -1.1355794600
