  62
        -98.93839315
 C          1.9290397751       -1.0877214812        0.1994298611
 C          2.3919993988        0.0925114101        0.8247383882
 C          3.8500158756        0.3156642168        0.7966081747
 C          4.6412148943       -0.5960257236        0.2050720768
 C          6.1325963802       -0.5345487497        0.0222062695
 C          6.4878989331        0.0771843603       -1.3436128453
 C          6.5897529233        1.6018860128       -1.3604518050
 H          7.4886147433        1.9072001105       -0.8206849881
 H          6.7134635759        1.9078654195       -2.4018154850
 C          5.3891960437        2.3454010960       -0.7690624911
 H          4.4619929021        1.8796947928       -1.1082973076
 H          5.4001215696        3.3643344610       -1.1610291809
 C          5.4121164799        2.4041029054        0.7655812657
 H          5.2750045923        3.4377556688        1.0900041434
 H          6.3964143484        2.0975961279        1.1193032953
 C          4.3287613196        1.5732619895        1.4691244898
 H          4.6716830377        1.3207429672        2.4782532308
 H          3.4258712794        2.1804445275        1.5908936685
 H          7.4473141947       -0.3288176233       -1.6704384190
 H          5.7327214412       -0.2495353268       -2.0630145623
 H          6.5984670073        0.0163367214        0.8337502809
 H          6.4912714152       -1.5657082529        0.0448920900
 O          4.1513491397       -1.7238116450       -0.3804003274
 C          2.7968309920       -1.9964455399       -0.4052690562
 O          2.4924998850       -3.0569653590       -0.9876744159
 O          1.6294353530        0.9282089855        1.3777480326
 C          0.4439460112       -1.4062871611        0.1754603272
 C         -0.3061537089       -0.2781196568       -0.4891464803
 C          0.0713097635        0.0989710718       -1.7764139085
 C         -0.5613958498        1.1425780695       -2.4217269568
 C         -1.5927676897        1.8267932547       -1.8015767412
 C         -1.9808434163        1.4568560504       -0.5201047992
 C         -1.3438327408        0.4036018020        0.1250037563
 H         -1.6531639396        0.1537583477        1.1252511510
 N         -3.0071758332        2.1527255892        0.1369768831
 S         -4.1852240540        1.3490037984        1.0057001935
 O         -5.2181085674        2.3402467641        1.2107975004
 O         -3.6250181249        0.7557558413        2.1921252623
 C         -4.7733451593        0.0852360537       -0.1064724957
 C         -4.2691421986       -1.1960329125       -0.0170506205
 C         -4.6927178221       -2.1464018329       -0.9329251319
 C         -5.6061937683       -1.8011700383       -1.9166716140
 C         -6.1066979743       -0.5098706020       -1.9905085859
 C         -5.6844498532        0.4452922737       -1.0806501435
 H         -6.0573568873        1.4565795994       -1.0956555206
 H         -6.8212017166       -0.2461330696       -2.7535612156
 H         -5.9318984748       -2.5443648797       -2.6272791977
 H         -4.3065710191       -3.1516478974       -0.8747354939
 H         -3.5643404120       -1.4291735699        0.7636051865
 H         -3.4087863670        2.9082292904       -0.3984838306
 H         -2.0825715912        2.6497093936       -2.2995877625
 H         -0.2518307445        1.4272662624       -3.4160781934
 H          0.8805474668       -0.4343090725       -2.2574027607
 H          0.3393546089       -2.3040451163       -0.4511045800
 C         -0.0419657900       -1.7304419898        1.5720245222
 C         -1.1941864340       -2.6673895750        1.7686694689
 C          0.1956494468       -3.1037858175        2.1212537467
 H          0.4593633608       -3.2035586050        3.1634790810
 H          0.6877416355       -3.8169684564        1.4757341581
 H         -1.8902409678       -2.4669964300        2.5701323366
 H         -1.6419573050       -3.0971229338        0.8850574584
 H          0.0629061344       -0.8980148329        2.2587881466
