  62
        -98.93635405
 C         -2.4064768352        0.2395816631        0.4736259902
 C         -3.6551087594        0.7343916377        0.9303957486
 C         -4.7827476734        0.6183263646       -0.0030595974
 C         -4.5668339279        0.1156061087       -1.2319244102
 C         -5.6310616394       -0.1090211976       -2.2658424307
 C         -6.2252042753       -1.5201374662       -2.1531178192
 C         -6.6362305067       -1.9063005978       -0.7321920861
 H         -7.0678638635       -2.9083865093       -0.7795466588
 H         -5.7421759330       -1.9715046702       -0.1077830235
 C         -7.6410022435       -0.9470614379       -0.0788107775
 H         -8.4212626265       -1.5355855628        0.4083696789
 H         -8.1244145462       -0.3392265984       -0.8444537203
 C         -7.0412524222       -0.0313835556        0.9899870769
 H         -7.8635307379        0.4429534846        1.5322333278
 H         -6.4774171345       -0.6293527704        1.7106602646
 C         -6.1286417413        1.0878312700        0.4728841173
 H         -6.6413141688        1.6475365665       -0.3121203849
 H         -5.9307686967        1.7680390991        1.3065949089
 H         -5.4790432894       -2.2383402232       -2.5008251008
 H         -7.0914555591       -1.5834235724       -2.8141351495
 H         -6.4135524328        0.6372628648       -2.1422739368
 H         -5.1812678311        0.0091048111       -3.2530892440
 O         -3.3451986034       -0.2904164493       -1.6581198718
 C         -2.2340924810       -0.2476544112       -0.8232061141
 O         -1.1907496042       -0.6641279761       -1.3580471878
 H          1.2189190039       -0.7588867423        0.7625547987
 C          1.1285552172        0.2766627427        0.4733393525
 C         -0.0475128147        0.9625034864        0.7286018479
 C         -0.1450650620        2.2907588212        0.3224869773
 C          0.9025300498        2.9094379910       -0.3314853386
 C          2.0713147107        2.2175164387       -0.5959070683
 C          2.1799430205        0.8935464426       -0.1946227549
 N          3.3555584715        0.1769302312       -0.4811554556
 S          4.8267987315        0.9603357649       -0.2159662469
 O          4.8088054952        1.6270536424        1.0674613861
 O          5.1153002717        1.7978198253       -1.3533942822
 C          5.9521636353       -0.4210209893       -0.1836069551
 C          6.3999863911       -0.9422161803       -1.3826650265
 C          7.2570915589       -2.0309251361       -1.3605403902
 C          7.6493159247       -2.5773920591       -0.1474760004
 C          7.1922283983       -2.0426901602        1.0476392567
 C          6.3338794380       -0.9545047109        1.0328023197
 H          5.9613139289       -0.5003199224        1.9369879844
 H          7.5013812534       -2.4678927041        1.9889166908
 H          8.3178295458       -3.4236793768       -0.1332790688
 H          7.6166977800       -2.4481034026       -2.2872895505
 H          6.0761759070       -0.4794446249       -2.3002354384
 H          3.3486158692       -0.7480303297       -0.0739713712
 H          2.8977675367        2.6861904965       -1.1056962226
 H          0.8106615003        3.9398928906       -0.6416151844
 H         -1.0607212431        2.8315718721        0.5216968573
 C         -1.2279115052        0.3356300135        1.4263385041
 H         -1.5683909823        1.0392766388        2.2045505183
 C         -0.8909269378       -0.9633562735        2.1426447711
 C         -1.9621549867       -1.9618649512        2.4618840358
 C         -0.9025742288       -2.2959174875        1.4573473231
 H         -0.1488490293       -3.0191004710        1.7338955749
 H         -1.1686470041       -2.3206908904        0.4124737980
 H         -1.9380333789       -2.4536775402        3.4226650470
 H         -2.9594850583       -1.7535447926        2.1026608446
 H         -0.1307719949       -0.8150047837        2.9041757187
 O         -3.8173512844        1.2528107613        2.0676053450
