  62
        -98.94321943
 C         -2.3784791390       -0.4847440217        0.1008770128
 C         -3.4645103239       -0.4721938397        1.0082350072
 C         -4.4576895963        0.5908508090        0.8065797359
 C         -4.2727454761        1.4835382251       -0.1834058328
 C         -5.2237398357        2.5934907926       -0.5241599049
 C         -6.2469934938        2.1474584542       -1.5777891352
 C         -6.9268078442        0.8172071300       -1.2536988150
 H         -7.6495919556        0.6192810619       -2.0482084204
 H         -6.1825017607        0.0184072556       -1.2902284990
 C         -7.6394376999        0.7829483271        0.1054936711
 H         -7.8087328732        1.7999347079        0.4610613284
 H         -8.6189416412        0.3178872536       -0.0244816785
 C         -6.9073668332       -0.0158045737        1.1855566680
 H         -7.5930121912       -0.1604935073        2.0247587267
 H         -6.6512184236       -1.0054425352        0.7987885729
 C         -5.6321306435        0.6286932690        1.7436298120
 H         -5.3295282656        0.0565828587        2.6257024416
 H         -5.8441644081        1.6533333115        2.0557858886
 H         -7.0020569928        2.9292909896       -1.6780322155
 H         -5.7340669042        2.0450378638       -2.5368433869
 H         -5.7354995197        2.9163385607        0.3803986844
 H         -4.6463309205        3.4294878475       -0.9223879563
 O         -3.2076505558        1.4494226598       -1.0241424692
 C         -2.2386628747        0.4631169906       -0.9128135371
 O         -1.3272893705        0.5407260152       -1.7577195942
 O         -3.5926203045       -1.3057857273        1.9453783619
 C         -1.3141829720       -1.5575661035        0.2471379273
 C          0.0273662096       -0.9136149333        0.4951515482
 C          0.1573040020       -0.0396679499        1.5722007473
 C          1.3614790592        0.5815730885        1.8376422827
 C          2.4654283255        0.3481706971        1.0352424052
 C          2.3516294159       -0.5297115715       -0.0326567786
 C          1.1394755484       -1.1597183451       -0.2926711160
 H          1.0687518355       -1.8364366891       -1.1298373460
 N          3.4594702257       -0.7632014944       -0.8600810877
 S          4.9741743314       -0.9953048522       -0.1866358443
 O          5.7175556366       -1.7341911303       -1.1836851207
 O          4.8872553721       -1.5976485627        1.1233089313
 C          5.6487227147        0.6478439878       -0.0612969203
 C          5.6469837680        1.4416451403       -1.1914235305
 C          6.1816291338        2.7175871873       -1.1136542005
 C          6.7089961389        3.1747793156        0.0849364700
 C          6.7061743408        2.3645550173        1.2098624544
 C          6.1718784495        1.0873706476        1.1388644245
 H          6.1434539814        0.4249821755        1.9895103065
 H          7.1164531227        2.7219157434        2.1406874737
 H          7.1240643810        4.1686585723        0.1423112044
 H          6.1845957378        3.3507874646       -1.9863209166
 H          5.2296404701        1.0504324273       -2.1042678424
 H          3.2846370234       -1.4018235243       -1.6215137065
 H          3.4066852302        0.8338820393        1.2338058715
 H          1.4435956562        1.2585114962        2.6745826944
 H         -0.7054898098        0.1473957963        2.1971380907
 H         -1.5916096736       -2.1222163466        1.1495780466
 C         -1.3402713400       -2.4972417762       -0.9394838936
 C         -0.8287865200       -3.8992758103       -0.7995727427
 C         -2.3000920266       -3.6474891131       -0.9316499672
 H         -2.7895023653       -3.9174226057       -1.8554735264
 H         -2.9217194040       -3.7692243734       -0.0566803636
 H         -0.3092880267       -4.3467519256       -1.6338039560
 H         -0.4491965182       -4.1981351487        0.1659755562
 H         -1.1839535116       -1.9850509871       -1.8825050267
