  62
        -98.94337595
 C         -1.2225536896       -0.6703887860        0.6085658566
 C         -1.9360237520       -0.5056652222       -0.6042490002
 C         -2.9196006884        0.5863403632       -0.6197705761
 C         -3.0221774589        1.4160666814        0.4329331135
 C         -3.9600243054        2.5864649217        0.5533747017
 C         -5.3726444435        2.2087610207        1.0205234550
 C         -6.2299162695        1.4840309250       -0.0180613732
 H         -7.2536922467        1.4770881970        0.3611762237
 H         -6.2306779370        2.0544868878       -0.9473728383
 C         -5.7979515665        0.0381260752       -0.2995935378
 H         -5.1460737735       -0.3099644272        0.5049648806
 H         -6.6766345939       -0.6105699950       -0.3026227272
 C         -5.0831091261       -0.1608507315       -1.6362215051
 H         -5.7703013438        0.0603545511       -2.4557466267
 H         -4.7912326166       -1.2110907223       -1.7157416268
 C         -3.8224150173        0.6963937147       -1.8111694952
 H         -4.0947299476        1.7368783893       -1.9880356795
 H         -3.2706913980        0.3273297188       -2.6794528117
 H         -5.8813498816        3.1347906607        1.2982611460
 H         -5.2897996501        1.5930443284        1.9192279421
 H         -3.5201924941        3.2616085570        1.2909388815
 H         -4.0171309615        3.1094471856       -0.4019050570
 O         -2.2382477268        1.2924214882        1.5373608062
 C         -1.3303515645        0.2522532467        1.6517445832
 O         -0.6746366985        0.2628490980        2.7140844005
 O         -1.7723142710       -1.2216227069       -1.6252538684
 C         -0.1899525999       -1.7699950450        0.7835030429
 C          0.7692442723       -1.7612795440       -0.3822668806
 C          1.1601192664       -2.8919301026       -1.0866431723
 C          2.0747929791       -2.7862268980       -2.1208763864
 C          2.6348353810       -1.5675044187       -2.4577458479
 C          2.2470334042       -0.4293201998       -1.7592608194
 C          1.3200959177       -0.5368577036       -0.7372658003
 H          0.9987268622        0.3565444548       -0.2236434359
 N          2.7843237257        0.8312360619       -2.0607663657
 S          3.0253856291        1.9378625526       -0.8330205792
 O          1.7746854194        2.5378634121       -0.4384128547
 O          4.0181163788        2.8474911428       -1.3652425919
 C          3.7330039217        0.9931059321        0.5056017168
 C          3.0239302279        0.7697552071        1.6678000228
 C          3.5957181598       -0.0099517444        2.6615262804
 C          4.8596079975       -0.5481222682        2.4788898518
 C          5.5643261401       -0.3064804159        1.3090340883
 C          4.9967357866        0.4683364729        0.3116463560
 H          5.5172180954        0.6872804960       -0.6064168482
 H          6.5496724862       -0.7214649932        1.1716585264
 H          5.2970406862       -1.1567192406        3.2544217450
 H          3.0401250734       -0.1937136024        3.5675841261
 H          2.0391659390        1.1953886499        1.7867783438
 H          3.5383147835        0.8297592997       -2.7313370156
 H          3.3518560881       -1.4909090216       -3.2604844890
 H          2.3622401863       -3.6703078022       -2.6693750622
 H          0.7351684686       -3.8515633547       -0.8429651782
 H          0.3872826991       -1.4680452834        1.6740741212
 C         -0.7695341681       -3.1427417356        1.0931098255
 C         -2.1589458911       -3.2950825830        1.6354508863
 C         -1.8377903044       -3.7739927391        0.2533101591
 H         -1.7901846627       -4.8395096066        0.0810790232
 H         -2.2067191642       -3.2090533920       -0.5873323909
 H         -2.3300863720       -4.0264260756        2.4113209304
 H         -2.7560040352       -2.4001899876        1.7398085679
 H         -0.0222436695       -3.8116748812        1.5086409955
