  62
        -98.93881345
 C          1.9604609651        0.5021685389       -0.2206413474
 C          2.9806161292        0.7822583227        0.7220407367
 C          4.1937767146       -0.0555330747        0.6790348931
 C          4.2603331645       -1.0463422584       -0.2293563633
 C          5.3941244823       -2.0026378429       -0.4875440381
 C          6.5588093280       -1.3497991703       -1.2493323109
 C          6.9546054911        0.0380853268       -0.7522505512
 H          7.7109506802        0.4319085817       -1.4363357045
 H          6.0888650415        0.7001038069       -0.8110925061
 C          7.5335288084        0.0832839684        0.6598153205
 H          8.4188498075       -0.5549262169        0.7047062616
 H          7.8560503534        1.1110896035        0.8450411994
 C          6.5819776994       -0.3250782046        1.7865042374
 H          7.0395468065       -0.0094768339        2.7287114910
 H          6.4786555150       -1.4054872104        1.8417165642
 C          5.2069474205        0.3327697364        1.7287321999
 H          5.3317152698        1.4181632927        1.6422975465
 H          4.7054368656        0.1773363539        2.6916382164
 H          6.2657408056       -1.2565681602       -2.2979711934
 H          7.4207487316       -2.0172534092       -1.1985667703
 H          5.7370943584       -2.4362721714        0.4471831745
 H          4.9884231178       -2.8114106064       -1.0995440742
 O          3.2492716344       -1.2889314833       -1.1099279399
 C          2.0853254486       -0.5427509645       -1.1349985951
 O          1.2739480365       -0.9108777447       -2.0080952130
 O          2.8904068515        1.7099590591        1.5702759430
 C          0.7087328791        1.3628485176       -0.1680093103
 C         -0.4060007119        0.5882776608        0.4919343936
 C         -0.6836948627        0.7735309316        1.8421068062
 C         -1.6932692995        0.0576238689        2.4607416905
 C         -2.4470279786       -0.8555507639        1.7455216373
 C         -2.1717612876       -1.0517234138        0.3981768907
 C         -1.1652063024       -0.3265773535       -0.2234436956
 H         -0.9432014356       -0.5033130314       -1.2644905987
 N         -2.9406978484       -1.9728081373       -0.3359098391
 S         -4.6034259889       -1.8252114498       -0.2093903227
 O         -5.0598089695       -2.5075835509        0.9763497689
 O         -5.1341714523       -2.3179321087       -1.4612718140
 C         -4.8964866575       -0.0721112955       -0.0437563198
 C         -4.4584470719        0.7601331225       -1.0550702348
 C         -4.6373786862        2.1270635985       -0.9221090757
 C         -5.2480083897        2.6366031495        0.2136820266
 C         -5.6868139415        1.7877516339        1.2175182747
 C         -5.5073162800        0.4193850541        1.0916115070
 H         -5.8268435774       -0.2762619720        1.8503143007
 H         -6.1625209654        2.1865267266        2.0989224737
 H         -5.3817138322        3.7020314927        0.3150180510
 H         -4.2954862010        2.7895097471       -1.7009917522
 H         -3.9901525064        0.3340300294       -1.9278737085
 H         -2.6492209057       -2.0633124829       -1.2982434430
 H         -3.2359068706       -1.4260526548        2.2087384219
 H         -1.8964127406        0.2119147335        3.5093852670
 H         -0.0887358715        1.4769682437        2.4065996855
 H          0.9672869057        2.2021373605        0.4909825332
 C          0.3072823154        1.9135223973       -1.5220991694
 C         -0.7349155089        2.9886441328       -1.5870340106
 C          0.6961016888        3.3120201803       -1.8921408524
 H          0.9741627301        3.5147465243       -2.9156948730
 H          1.2564448411        3.8843081084       -1.1674213672
 H         -1.4405798898        2.9700785048       -2.4031314250
 H         -1.1478951176        3.3383121699       -0.6531321573
 H          0.3183587689        1.1738232528       -2.3121255547
