  62
        -98.94493011
 C         -2.5476917837       -0.1609522531        0.4574016510
 C         -2.4443579450        0.5305475021       -0.7732528375
 C         -2.2549526654        1.9841027872       -0.6772216112
 C         -2.1878521681        2.5622775310        0.5355206665
 C         -1.9822634415        4.0296485704        0.7763542592
 C         -0.4976402361        4.3815366093        0.9365398748
 C          0.4036283387        3.8232009404       -0.1651826591
 H          1.4108364938        4.2016834900        0.0252352820
 H          0.4571827996        2.7355945083       -0.0728097780
 C         -0.0191466219        4.1995245288       -1.5918980588
 H          0.8736592696        4.4814782950       -2.1539285972
 H         -0.6758402293        5.0703333867       -1.5672482667
 C         -0.6972780837        3.0721665724       -2.3729884183
 H         -0.1043010664        2.1582728215       -2.2797744944
 H         -0.7125262204        3.3507683393       -3.4302762909
 C         -2.1403022802        2.7510896368       -1.9640049811
 H         -2.7260353052        3.6718332692       -1.9203174606
 H         -2.5702929894        2.1044847909       -2.7346107052
 H         -0.4070864626        5.4695799041        0.9666113245
 H         -0.1477250592        3.9835700371        1.8921756145
 H         -2.4097913957        4.5879797839       -0.0545557281
 H         -2.5091313058        4.3006198688        1.6933787841
 O         -2.2872110670        1.8638099934        1.6969360683
 C         -2.4444098552        0.4875603474        1.6860329613
 O         -2.4910631925       -0.0351148414        2.8206049803
 H         -0.1583097249       -0.8875189773        0.4924230574
 C         -0.2861223907       -1.7560871928       -0.1373286578
 C         -1.5513033115       -2.3095017834       -0.2837543113
 C         -1.6926933659       -3.4371055207       -1.0822079938
 C         -0.5923686947       -3.9802894072       -1.7236724338
 C          0.6618464084       -3.4154927010       -1.5878471874
 C          0.8130796862       -2.2834682224       -0.7926531327
 N          2.0623099138       -1.6515183019       -0.6799722357
 S          2.3694384982       -0.5913083144        0.5895034426
 O          2.1348103512       -1.2443234951        1.8599635041
 O          1.6580739240        0.6392902360        0.3552267335
 C          4.1178946993       -0.3331104989        0.3562422124
 C          4.5379138823        0.6546395195       -0.5139738730
 C          5.8970000957        0.8351265042       -0.7171063408
 C          6.8082788487        0.0287607704       -0.0515544117
 C          6.3721388654       -0.9569108798        0.8211662737
 C          5.0144075345       -1.1424956187        1.0285258921
 H          4.6292684380       -1.8869564983        1.7067668113
 H          7.0827648508       -1.5794909778        1.3403881810
 H          7.8652695920        0.1717478104       -0.2112046596
 H          6.2393599566        1.6031444116       -1.3917100474
 H          3.7922218835        1.2613989107       -1.0010627702
 H          2.8451373590       -2.2572091674       -0.8811698482
 H          1.5152091970       -3.8351164990       -2.0977967571
 H         -0.7150970092       -4.8569224348       -2.3415601760
 H         -2.6638925004       -3.8881666880       -1.2046686631
 C         -2.7008628669       -1.6702502060        0.4593614337
 H         -2.6379902924       -1.9819272474        1.5135981285
 C         -4.0586553174       -2.0636148921       -0.0870011896
 C         -4.7630892846       -3.2801449957        0.4318323943
 C         -5.2607328756       -1.9142892094        0.7947193663
 H         -6.1828868421       -1.5645002559        0.3557630890
 H         -5.0921492795       -1.5561058766        1.8003246384
 H         -4.2677424199       -3.8564075007        1.1988617362
 H         -5.3493913797       -3.8695774002       -0.2569154841
 H         -4.1707638278       -1.8107648063       -1.1350363958
 O         -2.5161038766       -0.0359813659       -1.8956339528
