  62
        -98.94469726
 C         -2.5705127117        0.1726039681        0.3570982453
 C         -2.1543441068        0.7150593642       -0.8831991367
 C         -1.6837218916        2.1069825639       -0.8469789972
 C         -1.6585694137        2.7647335106        0.3259987771
 C         -1.1876193846        4.1782490383        0.5115886452
 C          0.3024056285        4.2389694410        0.8710667264
 C          1.2009099653        3.4234173443       -0.0591275066
 H          2.2333995273        3.5962288536        0.2551427136
 H          1.0040741048        2.3581919705        0.0870272134
 C          1.0559510888        3.7632012402       -1.5490875287
 H          2.0535628464        3.8197799917       -1.9893379651
 H          0.5919858522        4.7442242774       -1.6639111922
 C          0.2725585899        2.7263905183       -2.3571553361
 H          0.6511192944        1.7279195884       -2.1247774590
 H          0.4535546195        2.9129074138       -3.4193918628
 C         -1.2469474709        2.7244035276       -2.1450439710
 H         -1.6365749612        3.7408213514       -2.2402825881
 H         -1.6919674339        2.1084790028       -2.9320345424
 H          0.6159518264        5.2849945036        0.8573562073
 H          0.4311179786        3.8565410202        1.8866332774
 H         -1.3733887960        4.7370684340       -0.4037537255
 H         -1.7648548239        4.6249489456        1.3235309919
 O         -2.0499728704        2.2037808399        1.5007026993
 C         -2.4894542352        0.8919100244        1.5474404944
 O         -2.7873445095        0.4880667441        2.6927025378
 O         -2.1945736441        0.0766035882       -1.9670467125
 C         -3.0349900114       -1.2711234122        0.4360056680
 C         -1.9107642049       -2.1818096614        0.0041057028
 C         -2.0814936025       -3.2896430083       -0.8149557143
 C         -0.9962628749       -4.0703320239       -1.1792474825
 C          0.2807855642       -3.7573192990       -0.7503431208
 C          0.4576964492       -2.6594936341        0.0813105366
 C         -0.6307475096       -1.8991263388        0.4664874089
 H         -0.4735763428       -1.0490151345        1.1190097596
 N          1.7725336751       -2.2778996871        0.4855031076
 S          2.0566463821       -0.6217043774        0.5006401449
 O          1.7378910838       -0.0383128420        1.7909642777
 O          1.4199541849       -0.0515116512       -0.6571362173
 C          3.8254459601       -0.6142571408        0.2749215934
 C          4.6611067501       -0.3451930100        1.3407215218
 C          6.0331101344       -0.3825440944        1.1443436928
 C          6.5427590312       -0.6898644471       -0.1076840143
 C          5.6907739122       -0.9572963359       -1.1693144808
 C          4.3190808365       -0.9205337964       -0.9787003061
 H          3.6166125249       -1.1135069588       -1.7728954542
 H          6.0901439961       -1.1939105080       -2.1423844186
 H          7.6104176779       -0.7192528876       -0.2578852225
 H          6.6969922789       -0.1725199966        1.9675054100
 H          4.2194311891       -0.1043397652        2.2944948698
 H          2.0708296310       -2.7023018817        1.3526180843
 H          1.1341013660       -4.3431610622       -1.0505889445
 H         -1.1480099961       -4.9245833292       -1.8212681103
 H         -3.0660535010       -3.5369476118       -1.1777324606
 H         -3.2381224051       -1.4652894026        1.5004470129
 C         -4.3132199448       -1.4713944506       -0.3506412353
 C         -5.3023619807       -2.5155881004        0.0700974141
 C         -5.6140992311       -1.0639162005        0.2709746992
 H         -6.3624653994       -0.6024963357       -0.3554074257
 H         -5.5782713378       -0.6643606817        1.2744084569
 H         -5.8428844386       -3.0516167835       -0.6952594960
 H         -5.0659219346       -3.1063120403        0.9422651892
 H         -4.1819613953       -1.2813204088       -1.4094145391
