  62
        -98.94050889
 C         -2.4703079638       -1.2262913269        0.0468866896
 C         -2.4541922333       -0.0245852363       -0.7008655611
 C         -3.7690357233        0.5707954760       -0.9724299175
 C         -4.8856071753       -0.0449994860       -0.5425476069
 C         -6.2979186241        0.4251835472       -0.7631689798
 C         -6.7763581700        1.4639081421        0.2605122502
 C         -6.1665182492        2.8577162844        0.1063609770
 H         -6.2885333968        3.1947050596       -0.9234142870
 H         -6.7445477105        3.5323206950        0.7409677610
 C         -4.6875430109        2.9499976189        0.5076726432
 H         -4.4174938296        2.0798760075        1.1104756753
 H         -4.5335744141        3.8321232601        1.1331556226
 C         -3.7159939639        3.0549985043       -0.6681568501
 H         -2.6971077059        3.0743752034       -0.2718237496
 H         -3.8869816662        3.9919151969       -1.2031221726
 C         -3.8093548562        1.8966902559       -1.6701387112
 H         -4.7162107760        1.9870952367       -2.2678421658
 H         -2.9434642990        1.9482142850       -2.3351100579
 H         -6.5705288749        1.0851190470        1.2642171511
 H         -7.8599604076        1.5510539509        0.1536662583
 H         -6.9351732770       -0.4578240856       -0.6810784234
 H         -6.3954010978        0.8322459568       -1.7698357171
 O         -4.8572276347       -1.2144150444        0.1509410580
 C         -3.6556121654       -1.8195645789        0.4808162290
 O         -3.7727746073       -2.8642580600        1.1530235633
 O         -1.4009067501        0.5242808083       -1.1203767278
 C         -1.1645942583       -1.9163915575        0.3959707108
 C         -0.2437950130       -0.9567643517        1.1097058299
 C         -0.7420676574       -0.2180720411        2.1801411691
 C          0.0630436932        0.6779936601        2.8548237912
 C          1.3818042479        0.8570864791        2.4754474104
 C          1.8953549772        0.1123090026        1.4209804866
 C          1.0856377353       -0.7965887468        0.7525262236
 H          1.5045155676       -1.3563593875       -0.0655754427
 N          3.2510449989        0.2412730102        1.0589695818
 S          3.6964051867        0.3604707072       -0.5660724696
 O          3.1455382941        1.5642961962       -1.1505792562
 O          3.4031943975       -0.8778053853       -1.2388831477
 C          5.4613979636        0.5303421366       -0.3699897800
 C          6.0433788011        1.7815882154       -0.4391885402
 C          7.4125706629        1.8957529805       -0.2547705911
 C          8.1717523790        0.7632449498       -0.0024151263
 C          7.5735489184       -0.4865590301        0.0626447541
 C          6.2056296388       -0.6073376676       -0.1220353991
 H          5.6984762090       -1.5573492244       -0.0885302058
 H          8.1674893372       -1.3652555084        0.2560549206
 H          9.2367725281        0.8545649380        0.1414035717
 H          7.8809082342        2.8653689671       -0.3085914072
 H          5.4153059947        2.6331614072       -0.6465568508
 H          3.7009796636        0.9904145580        1.5702915626
 H          2.0083227487        1.5668510286        2.9948202877
 H         -0.3402345741        1.2499206685        3.6772547094
 H         -1.7765997440       -0.3509387356        2.4684442979
 H         -1.4239623051       -2.7270277897        1.0933610321
 C         -0.5529414649       -2.5250917235       -0.8487177701
 C          0.2999068293       -3.7527368529       -0.7487540641
 C         -1.0718489527       -3.8396002109       -1.3455273975
 H         -1.1652105703       -3.9875213609       -2.4109588205
 H         -1.8538708734       -4.3110136118       -0.7678261757
 H          1.1545530455       -3.8365686206       -1.4032888790
 H          0.4520123015       -4.1754102405        0.2329309684
 H         -0.2870103657       -1.7794107164       -1.5906769526
