  62
        -98.93901515
 C          2.4377128796       -0.8600000300       -0.8142819917
 C          3.2982718222       -0.5871712803        0.2771726206
 C          4.0972782452        0.6435180625        0.1694216982
 C          3.9551912304        1.4336935985       -0.9098204725
 C          4.6727843942        2.7343417609       -1.1234112736
 C          3.8635072459        3.9163679127       -0.5718838556
 C          3.3576038037        3.7064422326        0.8553520993
 H          2.8291440845        4.6155796425        1.1502304767
 H          2.6263416598        2.8945284865        0.8600899176
 C          4.4585683909        3.4005209701        1.8803261831
 H          5.4294917737        3.6962899649        1.4812223466
 H          4.2798331178        3.9998701074        2.7754905829
 C          4.5191410656        1.9390004754        2.3282354116
 H          5.1724594910        1.8782708888        3.2027585071
 H          3.5248149252        1.6087527618        2.6399825775
 C          5.0529241133        0.9444629516        1.2896545517
 H          6.0076518650        1.2997324101        0.8964383710
 H          5.2236896455       -0.0075760867        1.8006669099
 H          4.4890757409        4.8099599368       -0.6101529715
 H          2.9997432942        4.0776938168       -1.2208653121
 H          5.6457227969        2.6887668649       -0.6380601204
 H          4.8181516812        2.8740018808       -2.1959528845
 O          3.0921035056        1.1560976357       -1.9207129691
 C          2.3080493601        0.0165794583       -1.8927418604
 O          1.5431613694       -0.1036053346       -2.8726097605
 O          3.4088457780       -1.3279567406        1.2878408336
 C          1.5686892930       -2.1078981706       -0.8357651846
 C          0.4739078165       -1.9561390778        0.1933406627
 C          0.4331064641       -2.6650942510        1.3855722067
 C         -0.5952515317       -2.4518098874        2.2884312261
 C         -1.5989145129       -1.5391278165        2.0224760334
 C         -1.5701034818       -0.8280543774        0.8287068073
 C         -0.5393519569       -1.0422903796       -0.0736417728
 H         -0.5088258235       -0.4885303602       -1.0043165754
 N         -2.5849667713        0.1103264739        0.5491547704
 S         -4.1733696735       -0.4280346718        0.7754447759
 O         -4.4898496690       -0.3330404604        2.1782848153
 O         -4.3423899402       -1.7341689152        0.1780917562
 C         -5.0944515536        0.7953116372       -0.1348807778
 C         -5.4256543119        1.9830779301        0.4888452398
 C         -6.1264510218        2.9413113047       -0.2260142958
 C         -6.4812784644        2.6977730439       -1.5445778169
 C         -6.1420342181        1.5005219524       -2.1567775333
 C         -5.4404282139        0.5381461553       -1.4479027953
 H         -5.1652551008       -0.4105133396       -1.8807382068
 H         -6.4214262739        1.3127267184       -3.1810539825
 H         -7.0284765827        3.4441955100       -2.0983856403
 H         -6.3945132778        3.8723950279        0.2465951335
 H         -5.1368089365        2.1239621322        1.5172603132
 H         -2.4779499813        0.5058853545       -0.3757252866
 H         -2.4089194013       -1.3746788956        2.7146098917
 H         -0.6156410824       -3.0065915147        3.2145323693
 H          1.2104932076       -3.3750864925        1.6135519516
 H          1.0915765249       -2.1212375953       -1.8258691269
 C          2.3908468907       -3.3687180161       -0.6804132192
 C          1.7970440155       -4.6847215947       -1.0806612787
 C          2.8854196066       -4.0707607567       -1.9077037351
 H          3.8672704387       -4.5190480859       -1.8838329109
 H          2.6227958591       -3.6471074270       -2.8663573018
 H          2.0303886248       -5.5575441724       -0.4903403358
 H          0.7924803405       -4.6780214156       -1.4765739519
 H          3.0504471014       -3.3465904232        0.1777359630
