  62
        -98.93806930
 C         -2.1855028103       -0.9206675921       -0.0214202366
 C         -2.9302280646       -0.2097380847        0.9448287700
 C         -3.7553746250        0.9141178357        0.4599774479
 C         -3.7279055992        1.2163260956       -0.8517943872
 C         -4.5054302227        2.2821190321       -1.5771847893
 C         -5.9782028638        1.8966470054       -1.7927997563
 C         -6.6621252418        1.2646571660       -0.5832162123
 H         -7.6555498963        0.9348472888       -0.8983674029
 H         -6.1067541150        0.3747130496       -0.2814574072
 C         -6.8375618274        2.1864036715        0.6212646819
 H         -7.4326741551        3.0532754478        0.3254629298
 H         -7.4071663484        1.6337157044        1.3727985772
 C         -5.5477719188        2.6850872398        1.2759138165
 H         -5.8205611169        3.1226972906        2.2408162635
 H         -5.0954945171        3.4830537773        0.6931386556
 C         -4.5188806126        1.5974214408        1.5691538726
 H         -4.9987657719        0.7956290242        2.1420920412
 H         -3.7564093531        2.0117090666        2.2406827358
 H         -6.0208142107        1.1752421747       -2.6123123282
 H         -6.5267603928        2.7887329757       -2.0994533406
 H         -4.4247578512        3.2277944077       -1.0493074557
 H         -4.0319348909        2.4047645867       -2.5537630343
 O         -2.9691062414        0.5186313955       -1.7449049521
 C         -2.1863916036       -0.5570332218       -1.3676287912
 O         -1.5518629997       -1.0875686910       -2.2979463617
 O         -2.9122026546       -0.4976770947        2.1739899822
 C         -1.3345538073       -2.0970251654        0.4168124595
 C          0.1196252063       -1.8561363198        0.0911575393
 C          0.9543855048       -2.8376757503       -0.4268366814
 C          2.2859413429       -2.5614502900       -0.6857517483
 C          2.8140868315       -1.3087532793       -0.4358448645
 C          1.9921345711       -0.3224689216        0.0940775099
 C          0.6614200347       -0.6050437183        0.3601111299
 H          0.0241989721        0.1654642315        0.7782579166
 N          2.5161765622        0.9593366181        0.3407560672
 S          3.9187382738        1.0742683453        1.2581786769
 O          4.0285304199       -0.0201493265        2.1949368237
 O          3.8904905209        2.4048711347        1.8257095604
 C          5.2281145402        0.9836857303        0.0555790173
 C          5.2150632066        1.8861165814       -0.9898680458
 C          6.2317410395        1.8350133360       -1.9299749005
 C          7.2401133618        0.8904570798       -1.8074580854
 C          7.2408540340       -0.0059681900       -0.7498071041
 C          6.2258120553        0.0386461659        0.1933835714
 H          6.1809471605       -0.6419164600        1.0285776069
 H          8.0257092765       -0.7392018898       -0.6563837830
 H          8.0297846913        0.8531274507       -2.5411493854
 H          6.2340322165        2.5302333586       -2.7540046315
 H          4.4151418967        2.6054440842       -1.0472325026
 H          1.8271441052        1.6216894962        0.6665122093
 H          3.8478733260       -1.0876467960       -0.6449949029
 H          2.9206502323       -3.3331496097       -1.0936102473
 H          0.5616556736       -3.8198701184       -0.6318255388
 H         -1.4325987873       -2.1373755597        1.5127170997
 C         -1.8796748597       -3.3837975642       -0.1678336755
 C         -1.7276299360       -4.6784235360        0.5717903392
 C         -3.0712324375       -4.0220580098        0.4787999584
 H         -3.8240673909       -4.4689178580       -0.1529836980
 H         -3.4704120662       -3.5437309481        1.3615514628
 H         -1.5602297687       -5.5805471974        0.0028867519
 H         -1.2175250137       -4.6544026981        1.5230007153
 H         -1.8286098952       -3.4004671218       -1.2507701708
