  62
        -98.94609645
 C         -1.0019644015       -1.6351712937        0.6278868023
 C         -1.7750559570       -1.5313142828       -0.5533030341
 C         -2.8808933924       -0.5640639503       -0.5099314171
 C         -3.0818185216        0.1597468610        0.6062854636
 C         -4.1711389664        1.1776895788        0.7803564375
 C         -3.7049666579        2.5838186107        0.3809620677
 C         -2.9876345868        2.6385107176       -0.9672660710
 H         -2.7226795710        3.6809003739       -1.1533924245
 H         -2.0521837811        2.0781189019       -0.8976992994
 C         -3.8147987313        2.1070084351       -2.1462077308
 H         -4.8717736875        2.0857042355       -1.8778997148
 H         -3.7077012660        2.7953656529       -2.9870180549
 C         -3.3944351239        0.7247404717       -2.6487769676
 H         -3.8858936567        0.5483674330       -3.6093996678
 H         -2.3158748167        0.7099462781       -2.8257639354
 C         -3.7475206926       -0.4536269242       -1.7325152106
 H         -4.8028779432       -0.4028706098       -1.4565897575
 H         -3.5842708909       -1.3755666786       -2.2982988322
 H         -3.0194692451        2.9468661789        1.1478556202
 H         -4.5755923471        3.2416979025        0.3594363718
 H         -5.0285958956        0.8825078155        0.1783515127
 H         -4.4652835930        1.1864836963        1.8313947236
 O         -2.2886703799        0.0639125915        1.7047295725
 C         -1.2303349200       -0.8293440926        1.7423562784
 O         -0.5784661065       -0.8109230735        2.8070377535
 H          1.2776532981       -0.2764933630        0.3105523749
 C          1.6588964105       -1.0011731565       -0.3939755244
 C          1.1714338742       -2.3021448011       -0.3577797328
 C          1.6672122536       -3.2239835496       -1.2694764441
 C          2.6216829800       -2.8431414538       -2.1971466683
 C          3.1201330737       -1.5540246622       -2.2144443520
 C          2.6377095725       -0.6253685198       -1.2980345168
 N          3.1229228856        0.6908368017       -1.2799791619
 S          3.3849698507        1.4718378183        0.1797041981
 O          4.4524307672        2.4086036533       -0.1041747917
 O          3.6302928443        0.5326562328        1.2476611294
 C          1.8968423019        2.4030434535        0.4723622988
 C          1.0823543757        2.1078119897        1.5464879435
 C         -0.0393789686        2.8908660590        1.7718535883
 C         -0.3210667960        3.9536923834        0.9281999326
 C          0.5026780639        4.2327678336       -0.1521368754
 C          1.6222819225        3.4520847159       -0.3841411277
 H          2.2977694577        3.6451064487       -1.2008385681
 H          0.2765383822        5.0576602125       -0.8082236136
 H         -1.1848620501        4.5718653044        1.1159437692
 H         -0.6824498169        2.6554972950        2.6057909618
 H          1.3248719592        1.2758980335        2.1910513387
 H          3.8676216292        0.8747995155       -1.9366281414
 H          3.8751136624       -1.2634723997       -2.9292517181
 H          2.9919128283       -3.5654084621       -2.9089411633
 H          1.3034357978       -4.2380580939       -1.2598708078
 C          0.1407824278       -2.6320033055        0.6946955878
 H          0.6150188210       -2.4884824209        1.6773995810
 C         -0.3897777223       -4.0478702040        0.6120912654
 C          0.3757547198       -5.1753286041        1.2345922563
 C         -0.9017111665       -4.7019426568        1.8587182919
 H         -1.7756981241       -5.3320224661        1.7896619399
 H         -0.8448678477       -4.1338565314        2.7762188604
 H          0.3776292829       -6.1345442257        0.7392800435
 H          1.3027441428       -4.9343526798        1.7331254538
 H         -0.9277521757       -4.2391073193       -0.3090501136
 O         -1.5642530710       -2.2191646741       -1.5858827117
