  62
        -98.94420244
 C         -1.9801155809       -1.2950868388        0.0183658715
 C         -2.3163235206       -0.3201797992       -0.9518741590
 C         -3.7304708005        0.0826639613       -0.9910059291
 C         -4.6064000007       -0.4873663180       -0.1442515888
 C         -6.0600040905       -0.1292714974       -0.0417779689
 C         -6.2868308001        0.9736432432        1.0017045706
 C         -5.3501169896        2.1721385328        0.8481866401
 H         -5.6223940093        2.8981431132        1.6174049097
 H         -4.3254480398        1.8547109225        1.0560590601
 C         -5.4011629495        2.8458208621       -0.5302727803
 H         -5.4347520591        3.9282610722       -0.3894028907
 H         -6.3162708396        2.5585215822       -1.0494766201
 C         -4.1965503896        2.5514333913       -1.4262956002
 H         -4.2273735394        3.2415727209       -2.2737874505
 H         -3.2729730295        2.7508975312       -0.8762858003
 C         -4.1207876902        1.1293152310       -1.9961947395
 H         -5.0685982303        0.8729660011       -2.4736754394
 H         -3.3371569602        1.1194808004       -2.7594346296
 H         -6.1350215502        0.5466590036        1.9957155008
 H         -7.3232563000        1.3085132835        0.9305223105
 H         -6.4184528805        0.1981119523       -1.0157051490
 H         -6.6136709208       -1.0204510971        0.2585263816
 O         -4.2495667210       -1.4328773277        0.7616702416
 C         -2.9331948611       -1.8420123781        0.8814290818
 O         -2.7385300714       -2.6897936078        1.7749839821
 H          1.0647182995        0.0204693095       -1.1234302793
 C          1.0297670696        0.1997562600       -0.0606848194
 C          0.2633288993       -0.6210465093        0.7520138110
 C          0.2174383795       -0.3509273187        2.1167228109
 C          0.9208297499        0.7120774913        2.6527273404
 C          1.6791681202        1.5344446107        1.8368623900
 C          1.7226444900        1.2775613500        0.4738731201
 N          2.5026938303        2.1097291394       -0.3610407603
 S          4.1575524302        2.0011234189       -0.1227032504
 O          4.4815043005        2.5567126293        1.1663278294
 O          4.7661024004        2.6381572081       -1.2681464007
 C          4.4895896896        0.2489459887       -0.1373488996
 C          4.7563052193       -0.3648824719       -1.3448683293
 C          4.9328386788       -1.7385960620       -1.3740276887
 C          4.8253376986       -2.4727218614       -0.2027756184
 C          4.5526418489       -1.8415082108        1.0009476414
 C          4.3817136394       -0.4669761207        1.0380181807
 H          4.1732407896        0.0599848098        1.9545763305
 H          4.4683901487       -2.4146510503        1.9103441316
 H          4.9549157982       -3.5432522015       -0.2285180279
 H          5.1490465286       -2.2323076125       -2.3079555585
 H          4.8337601095        0.2439096177       -2.2315698596
 H          2.2945622502        1.9804712190       -1.3416037203
 H          2.2432070905        2.3626023006        2.2347729796
 H          0.8770503800        0.9052827718        3.7140112003
 H         -0.3863943607       -0.9845099582        2.7518949312
 C         -0.5459629211       -1.7680366993        0.1989565716
 H         -0.5850833614       -2.5544624289        0.9640042220
 C          0.0289830386       -2.3536694401       -1.0742071982
 C          1.3224359483       -3.1075364305       -1.0077351879
 C          0.0394200081       -3.8397685302       -1.2594739675
 H         -0.1446240521       -4.2355504505       -2.2470206473
 H         -0.3700301921       -4.4456644396       -0.4644722472
 H          1.7865455984       -3.2107073702       -0.0386988479
 H          2.0246563983       -3.0015746611       -1.8202175580
 H         -0.1619236612       -1.7482763604       -1.9512527384
 O         -1.4906513905        0.1914721602       -1.7529701792
