  62
        -98.94107568
 C         -2.1976974622       -0.9796002480        0.6736459887
 C         -2.2097058920       -0.0958223031       -0.4344413784
 C         -3.1078520783        1.0626114183       -0.3131200326
 C         -3.7876042039        1.2733238699        0.8273914334
 C         -4.7293044566        2.4137607595        1.1033780450
 C         -6.1541701510        2.1837511894        0.5807678356
 C         -6.3129972821        2.2708265985       -0.9377513701
 H         -7.3841484388        2.3087473098       -1.1454259582
 H         -5.8789317121        3.2055985432       -1.2939838818
 C         -5.7029916575        1.0916523458       -1.7085146533
 H         -5.5309819901        0.2582064338       -1.0234815437
 H         -6.4119884049        0.7437663898       -2.4629746344
 C         -4.3954672209        1.4155696297       -2.4316915520
 H         -4.0348763240        0.5036451375       -2.9145163378
 H         -4.5813956764        2.1570813371       -3.2117367756
 C         -3.2809237254        1.9395405368       -1.5162080911
 H         -3.4929306806        2.9649415968       -1.2134198281
 H         -2.3403884043        1.9275215540       -2.0733104297
 H         -6.4999474565        1.2073803169        0.9281803629
 H         -6.7937161703        2.9436857341        1.0355407995
 H         -4.3268856335        3.3331560083        0.6768784541
 H         -4.7738926800        2.5245965460        2.1890778318
 O         -3.6719617520        0.4530998883        1.9062940211
 C         -2.8935288782       -0.6925190547        1.8504553523
 O         -2.8892192080       -1.3563621638        2.9070373822
 O         -1.5197712986       -0.2523895018       -1.4736951253
 C         -1.3611987177       -2.2479714684        0.6746930876
 C          0.0293513691       -1.9472285343        0.1709865720
 C          0.6007785976       -2.5542897970       -0.9387451035
 C          1.8807509614       -2.2130124063       -1.3396127907
 C          2.6180876762       -1.2720426932       -0.6450227446
 C          2.0539084944       -0.6541520154        0.4635509918
 C          0.7733263982       -1.0003869909        0.8649134247
 H          0.3297438996       -0.5141019737        1.7264609410
 N          2.7978901218        0.2935593235        1.1886563730
 S          3.5846491640        1.5158375206        0.3485996702
 O          3.7437668630        2.5847926140        1.3115812807
 O          2.9015075166        1.8543393214       -0.8781120029
 C          5.1839285268        0.8188954275       -0.0098942350
 C          5.9293056144        0.3224539358        1.0416221928
 C          7.1779765296       -0.2182342610        0.7797924321
 C          7.6589235486       -0.2502464101       -0.5208043317
 C          6.9003116412        0.2563086837       -1.5648638711
 C          5.6497830037        0.7977460984       -1.3098731363
 H          5.0213297318        1.1972270517       -2.0900922973
 H          7.2757412996        0.2312703943       -2.5752636318
 H          8.6308348058       -0.6723594643       -0.7219667205
 H          7.7708296696       -0.6129362638        1.5891239907
 H          5.5204196517        0.3691630243        2.0370842305
 H          2.3033227029        0.6739365344        1.9827040555
 H          3.6126231826       -1.0011903225       -0.9594833007
 H          2.3104488166       -2.6857964440       -2.2096106032
 H          0.0343806889       -3.2730746132       -1.5073948405
 H         -1.2759706539       -2.5292209082        1.7376548271
 C         -2.0197158932       -3.4243997205       -0.0306591034
 C         -3.5124593854       -3.5485237190       -0.0884113069
 C         -2.7339591239       -3.2811253321       -1.3395716956
 H         -2.6411338576       -4.0778261588       -2.0631924680
 H         -2.7813675369       -2.2973879753       -1.7783726865
 H         -3.9518032408       -4.5251444165        0.0487784989
 H         -4.0977823031       -2.7443901430        0.3342179584
 H         -1.4693915279       -4.3469475947        0.1259519790
