  62
        -98.93873886
 C          1.7987383097        0.8012351060        0.3150535403
 C          2.0745974894       -0.5153404767       -0.1380761365
 C          3.4283462702       -0.7609899070       -0.6441065673
 C          4.3166340681        0.2483669761       -0.6793769639
 C          5.7305620549        0.1673525814       -1.1878953974
 C          6.7361851663       -0.3630541674       -0.1567670681
 C          6.6381832998       -1.8604089698        0.1382567507
 H          6.6607549460       -2.4163413457       -0.7995537055
 H          7.5327258866       -2.1347983163        0.7009857888
 C          5.4005806365       -2.2665550219        0.9506286828
 H          5.6983835797       -2.9459036118        1.7525499617
 H          4.9698842681       -1.3816234472        1.4248353196
 C          4.3128879807       -2.9709339732        0.1396952319
 H          4.6926687605       -3.9255888396       -0.2309525033
 H          3.4701039002       -3.1778302982        0.8039041914
 C          3.7881232564       -2.1580864611       -1.0509644845
 H          4.5281555811       -2.1420727657       -1.8508461792
 H          2.8798838547       -2.6390734217       -1.4219003833
 H          6.6146163687        0.2001419657        0.7714490395
 H          7.7372110937       -0.1554880003       -0.5420257929
 H          5.7626439667       -0.4551227878       -2.0826276603
 H          6.0214633839        1.1840785008       -1.4606975897
 O          4.0093098109        1.5030633265       -0.2608793888
 C          2.7538288966        1.8166756955        0.2534638517
 O          2.6444536456        3.0065010584        0.5998592496
 H         -2.0340925789        0.0600503849        0.3095095701
 C         -1.7764520819        0.8670060172       -0.3577758994
 C         -0.5410614475        1.4842398682       -0.2354703382
 C         -0.2101624772        2.5052251310       -1.1204463981
 C         -1.1079259062        2.8997477977       -2.0957540788
 C         -2.3508704081        2.2992750959       -2.1972458083
 C         -2.6890399517        1.2747674036       -1.3207360751
 N         -3.9290292511        0.6327619939       -1.4076219631
 S         -4.6832513676        0.0302964911       -0.0424238495
 O         -6.0701322855       -0.1062563642       -0.4310952060
 O         -4.4248784343        0.8548213856        1.1144454909
 C         -3.9730671381       -1.5873662317        0.1720111523
 C         -3.9672187187       -2.4475833995       -0.9078429792
 C         -3.4170247477       -3.7096209906       -0.7543791250
 C         -2.8867644007       -4.0888714866        0.4694271997
 C         -2.9058384430       -3.2158640801        1.5457931277
 C         -3.4546037997       -1.9519528904        1.3985081260
 H         -3.4807120792       -1.2391471516        2.2082672067
 H         -2.4905457353       -3.5112507680        2.4960676244
 H         -2.4532185585       -5.0696335592        0.5855151889
 H         -3.3984895502       -4.3921275539       -1.5887999432
 H         -4.3882201974       -2.1180365424       -1.8430509979
 H         -4.5785373812        1.0248913423       -2.0726470603
 H         -3.0531463179        2.6182504509       -2.9522727177
 H         -0.8417202527        3.6932618939       -2.7779336964
 H          0.7506852310        2.9896109857       -1.0295684494
 C          0.4015397725        1.0426254871        0.8541756582
 H          0.0593610728        0.0509486099        1.1923491699
 C          0.3579347282        1.9653417493        2.0639278290
 C         -0.1864954042        3.3582098155        2.0262116304
 C         -0.9540951237        2.2769470043        2.7227586175
 H         -0.9999009419        2.2885704627        3.8014943932
 H         -1.8567673661        1.9175512417        2.2485766384
 H          0.3169127674        4.1075469959        2.6178147859
 H         -0.5691701259        3.7326182716        1.0899605500
 H          1.2046456512        1.8037947554        2.7238601950
 O          1.2233534201       -1.4440675172       -0.1141289141
