  62
        -98.94702548
 C          2.2672882503        0.5784547090       -0.4808066636
 C          1.4578802078       -0.3698747741       -1.1505925906
 C          1.7797217975       -1.7839236952       -0.9073669372
 C          2.7790278342       -2.1038228306       -0.0674592598
 C          3.1776647274       -3.5011137180        0.3078496030
 C          2.4362972242       -3.9799225096        1.5632645191
 C          0.9226074009       -3.7685349376        1.5131895255
 H          0.5056315318       -4.1915109370        2.4304341752
 H          0.6999030288       -2.6983917533        1.5314949747
 C          0.2297722385       -4.4017245869        0.2985937520
 H          0.8747471773       -5.1615604725       -0.1455740812
 H         -0.6787648642       -4.9028524630        0.6395109723
 C         -0.1926851178       -3.3938370775       -0.7717857219
 H         -0.7244799880       -2.5696772947       -0.2896620096
 H         -0.8915837501       -3.8880776114       -1.4524059158
 C          0.9461444707       -2.8120312599       -1.6197880673
 H          1.5742694163       -3.6213726041       -1.9984385852
 H          0.4975901434       -2.2972083752       -2.4743129903
 H          2.6507747747       -5.0412268020        1.7048993807
 H          2.8277891554       -3.4359499779        2.4262099888
 H          2.9685554945       -4.1686726480       -0.5259255086
 H          4.2508662088       -3.5086755625        0.5073992940
 O          3.5312370054       -1.1698238691        0.5690470640
 C          3.2865493500        0.1795562024        0.3893546661
 O          4.0467739680        0.9252161639        1.0414943380
 H         -0.4625398878        1.1899505445       -0.2617017708
 C         -0.2109061527        1.9445987992        0.4629063139
 C          1.0444924756        2.5351263756        0.4308806748
 C          1.3457032132        3.5188107673        1.3646391902
 C          0.4153109775        3.8869455025        2.3204569159
 C         -0.8140228113        3.2571278333        2.3824126036
 C         -1.1249791947        2.2698930735        1.4526107760
 N         -2.3560623936        1.5996924986        1.5043039983
 S         -2.4530534451       -0.0709623560        1.3052287308
 O         -3.3270641322       -0.5185467373        2.3729175403
 O         -1.1455524045       -0.6754104332        1.2612436877
 C         -3.3311640902       -0.2462219007       -0.2351829018
 C         -4.7120327960       -0.1975399779       -0.1802518000
 C         -5.4392067094       -0.3048035625       -1.3534849608
 C         -4.7765021291       -0.4581953204       -2.5622237456
 C         -3.3923333838       -0.5056279539       -2.6008098126
 C         -2.6570025241       -0.3975708174       -1.4292815239
 H         -1.5783041658       -0.4302298268       -1.4489312858
 H         -2.8704352433       -0.6238546674       -3.5370716075
 H         -5.3403025691       -0.5424756550       -3.4780085438
 H         -6.5163041176       -0.2692248517       -1.3226900601
 H         -5.1851490578       -0.0920011397        0.7820242523
 H         -2.9455688457        1.8884926621        2.2718293787
 H         -1.5280040362        3.5195065798        3.1489390858
 H          0.6586031319        4.6544399927        3.0397417725
 H          2.3224701025        3.9798446417        1.3521017666
 C          2.0698998138        2.0844058652       -0.5832043434
 H          3.0337484169        2.5305137048       -0.3007099913
 C          1.7085402178        2.5706468803       -1.9725212733
 C          2.0227534979        3.9859835708       -2.3495696437
 C          2.8007880855        2.8577142208       -2.9562917045
 H          2.6356016599        2.6114417755       -3.9942146388
 H          3.8195960956        2.7064841133       -2.6293701823
 H          1.3209873068        4.5196612768       -2.9716816124
 H          2.5172779100        4.6032936238       -1.6148650384
 H          0.7953357545        2.1371068101       -2.3565664257
 O          0.5105029330       -0.0787258677       -1.9290877385
