  62
        -98.94378635
 C          1.4523016545        0.9400176902       -0.4848093164
 C          2.5234761270        1.1126919332        0.4287438116
 C          3.4164408951       -0.0356822262        0.6221426430
 C          3.1585882499       -1.1814098004       -0.0339985492
 C          4.0016099214       -2.4211246641        0.0380880377
 C          5.0761062066       -2.4295714467       -1.0581455527
 C          5.8762304233       -1.1299552186       -1.1466202355
 H          6.6235414221       -1.2608464844       -1.9321523229
 H          5.2110719721       -0.3242493477       -1.4653368393
 C          6.5723878986       -0.7235269407        0.1597175541
 H          6.6355308640       -1.5826819219        0.8284627909
 H          7.5944723806       -0.4148741398       -0.0694573703
 C          5.9093478384        0.4424618850        0.8955413309
 H          5.7574955801        1.2740291359        0.2029041208
 H          6.5945961375        0.7863762652        1.6748494566
 C          4.5687614849        0.1298580105        1.5726636503
 H          4.6730348732       -0.7527549902        2.2076384580
 H          4.3103361532        0.9814050674        2.2091421019
 H          5.7533264581       -3.2648572940       -0.8708012047
 H          4.5867649968       -2.5977144989       -2.0202920351
 H          4.4674164832       -2.4787677159        1.0201841471
 H          3.3488941289       -3.2861947029       -0.0934921468
 O          2.1140531208       -1.3218604622       -0.8847049906
 C          1.2283184569       -0.2776098855       -1.1299812002
 O          0.3265345016       -0.5749878082       -1.9339252160
 H         -0.8138847374        0.0115232308        0.3662129608
 C         -1.1455648403        0.9433686360        0.7928600636
 C         -0.5557384411        2.1324458665        0.3899607301
 C         -0.9756442139        3.3197509112        0.9792191087
 C         -1.9711764911        3.3115626572        1.9401099741
 C         -2.5570351062        2.1240045194        2.3384141519
 C         -2.1298049035        0.9272214491        1.7705296282
 N         -2.6642061189       -0.2878131483        2.2050314852
 S         -2.6269012108       -1.7155423358        1.3469122870
 O         -3.4222788864       -2.6125322830        2.1594887417
 O         -1.2675437342       -2.1248894769        1.0994045022
 C         -3.5091860523       -1.3853038722       -0.1668873571
 C         -2.8473018721       -1.2407079574       -1.3680530933
 C         -3.5928143924       -0.9805583397       -2.5093199908
 C         -4.9707320895       -0.8631391000       -2.4317679744
 C         -5.6202392581       -1.0102268883       -1.2146653716
 C         -4.8847372611       -1.2749963468       -0.0724853323
 H         -5.3511212952       -1.4189742297        0.8884779898
 H         -6.6929719504       -0.9217521187       -1.1547933487
 H         -5.5406882733       -0.6585991497       -3.3243403529
 H         -3.0802435067       -0.8695833144       -3.4513192347
 H         -1.7720892041       -1.3212506254       -1.4139762372
 H         -3.4428179475       -0.2295834637        2.8422498155
 H         -3.3238602604        2.1159319976        3.0974438855
 H         -2.2904184820        4.2393129045        2.3898977564
 H         -0.5019035038        4.2485024283        0.6975666227
 C          0.5262759443        2.1296814366       -0.6628766589
 H          1.1592436510        3.0127729657       -0.4761658594
 C         -0.0337602076        2.2598300255       -2.0722580212
 C         -1.4560838456        1.9503374969       -2.4184317110
 C         -0.9812233339        3.3703745892       -2.4186665815
 H         -0.8560088279        3.8740333897       -3.3651354501
 H         -1.3207476578        4.0092027654       -1.6183924342
 H         -2.1120098272        1.6270619483       -1.6246565749
 H         -1.6452452148        1.4620725065       -3.3613056318
 H          0.7076656411        2.0039027508       -2.8221893967
 O          2.7246116480        2.1912161891        1.0514920360
