  62
        -98.93661700
 C          1.9381099689        1.2619777785       -0.1037397907
 C          3.0343581099        1.1420269245        0.7874594538
 C          4.2467334597        0.4750560168        0.2830143604
 C          4.2617382025        0.0075063652       -0.9787712816
 C          5.3517680038       -0.6713184189       -1.7817271621
 C          6.6094723484       -1.2001403873       -1.0978076229
 C          6.3793796807       -2.3985338742       -0.1771796423
 H          6.1271198647       -3.2655188609       -0.7931775984
 H          7.3164964671       -2.6191092693        0.3384772829
 C          5.2696423287       -2.2327951245        0.8581886916
 H          5.2028933541       -3.1633580088        1.4285439929
 H          4.3112621543       -2.0988315058        0.3519288324
 C          5.4685289363       -1.0918590302        1.8538729775
 H          6.4363726530       -1.1993607709        2.3474907206
 H          4.6912711881       -1.1828833879        2.6175792636
 C          5.3736963198        0.3253582862        1.2639203422
 H          5.1594558729        1.0177253034        2.0833064465
 H          6.3165293472        0.6308902910        0.8165245281
 H          7.2853154460       -1.5223622986       -1.8946924918
 H          7.1125080897       -0.3990214145       -0.5643535641
 H          4.8623698103       -1.4923687169       -2.3156034677
 H          5.6521456852        0.0549168176       -2.5452070969
 O          3.1828507671        0.1432868424       -1.8019109517
 C          2.0023071121        0.7528192698       -1.3996295806
 O          1.1245026178        0.7593250684       -2.2833979950
 H         -0.3189234134       -0.2016847701       -0.8168666839
 C         -0.7405960073       -0.0674141659        0.1684004940
 C         -0.3200657408        1.0010974133        0.9488432188
 C         -0.8805886661        1.1634689009        2.2103178469
 C         -1.8311727322        0.2731478818        2.6799535346
 C         -2.2459172490       -0.7913530014        1.9004634056
 C         -1.6948737648       -0.9595137231        0.6360968430
 N         -2.1201195769       -2.0283655223       -0.1726592453
 S         -3.7715594035       -2.2703053882       -0.3134669020
 O         -4.2466915663       -3.0077567597        0.8310816871
 O         -3.9584555548       -2.9086434338       -1.5970114345
 C         -4.4811071008       -0.6334648314       -0.3126038115
 C         -5.3014403902       -0.2368055916        0.7238465324
 C         -5.8025411934        1.0551434446        0.7248768505
 C         -5.4735968505        1.9241590400       -0.3036417600
 C         -4.6529577639        1.5089878158       -1.3412626225
 C         -4.1489491452        0.2184099687       -1.3475177024
 H         -3.5090406294       -0.1353461625       -2.1409743337
 H         -4.3957814976        2.1864490419       -2.1395494957
 H         -5.8573727792        2.9319599069       -0.2992449102
 H         -6.4428673949        1.3801550405        1.5288926469
 H         -5.5304635526       -0.9444747063        1.5037164348
 H         -1.6712338376       -2.0502922481       -1.0767876879
 H         -2.9784497562       -1.4996521333        2.2518767913
 H         -2.2530061845        0.4079226290        3.6639507033
 H         -0.5554125331        1.9862621199        2.8297357735
 C          0.7052091399        1.9738506881        0.4252157660
 H          1.0729683872        2.5564691443        1.2844193478
 C          0.1207710268        2.9653360540       -0.5729909244
 C         -1.1692343371        2.7548326067       -1.3010914533
 C         -1.0877025888        3.7772001825       -0.2102430314
 H         -1.1053712234        4.8235456841       -0.4740521003
 H         -1.5772490097        3.5451122694        0.7234121631
 H         -1.7237418550        1.8503808829       -1.1080135508
 H         -1.2199090322        3.0852930518       -2.3273037184
 H          0.9019332536        3.4774322660       -1.1266221642
 O          3.0069611387        1.5930691985        1.9638115701
