  62
        -98.94241201
 C         -1.1485240248       -1.4555194055        0.4615693151
 C         -2.1316701462       -1.2340546132       -0.5291235240
 C         -3.2751237473       -0.3868987207       -0.1431255323
 C         -3.3080563185        0.1633976532        1.0848904207
 C         -4.3429513511        1.0410558313        1.7580974793
 C         -5.4492361257        1.7078939704        0.9452273566
 C         -4.9688167925        2.7939604534       -0.0172054174
 H         -5.8215139479        3.1221355103       -0.6157882398
 H         -4.6240948884        3.6496907536        0.5690646794
 C         -3.8304979732        2.3943212580       -0.9533878490
 H         -3.5856160950        3.2631718585       -1.5710456813
 H         -2.9357708038        2.1618063998       -0.3704607191
 C         -4.1340067051        1.2282067664       -1.8921916539
 H         -3.3001196753        1.1489490518       -2.5952141049
 H         -5.0375517895        1.4446796785       -2.4657987264
 C         -4.2985063544       -0.1425214757       -1.2143622885
 H         -5.3048086045       -0.2729529878       -0.8238810192
 H         -4.1360251394       -0.9135164397       -1.9733135305
 H         -6.0316288969        0.9592203945        0.4163785066
 H         -6.1215059672        2.1817865205        1.6657534409
 H         -4.8078548260        0.4156200896        2.5285024662
 H         -3.7749645861        1.8124864210        2.2885786048
 O         -2.3194737835       -0.0603440052        2.0004995498
 C         -1.2169998584       -0.8425730847        1.7104166985
 O         -0.3785135642       -0.9151964773        2.6330928929
 H          0.5252771174        0.3202804775       -0.1172599075
 C          1.0289845632       -0.2366456604       -0.8921853614
 C          0.8838329005       -1.6155839704       -0.9486493412
 C          1.5153205974       -2.3046477544       -1.9762207050
 C          2.2584351829       -1.6188852312       -2.9221163646
 C          2.4151506771       -0.2462632824       -2.8497205445
 C          1.7929725262        0.4505434508       -1.8203981461
 N          1.9290707409        1.8411930611       -1.6838975632
 S          2.0613448336        2.4801596307       -0.1417479994
 O          0.7701888674        2.5279057715        0.4977086630
 O          2.7093985631        3.7595728381       -0.3414812844
 C          3.1709396361        1.3691424298        0.7066873437
 C          4.4894022051        1.3655687774        0.2910721263
 C          5.3781984166        0.4789604829        0.8747354702
 C          4.9347385132       -0.3924340858        1.8584760797
 C          3.6117924940       -0.3714876894        2.2696959477
 C          2.7168330840        0.5162517383        1.6913535240
 H          1.6817407395        0.5398110306        1.9964957714
 H          3.2573604501       -1.0440119552        3.0348406469
 H          5.6229166362       -1.0897001321        2.3096409217
 H          6.4091444277        0.4659909920        0.5600346640
 H          4.7972505098        2.0657160881       -0.4684914943
 H          2.5747991590        2.2728572485       -2.3285824169
 H          3.0031457298        0.2831137258       -3.5834235401
 H          2.7334507378       -2.1641424586       -3.7233423940
 H          1.4185736445       -3.3758675330       -2.0417774417
 C          0.0813618210       -2.2842689221        0.1426005476
 H          0.6964152205       -2.2738901135        1.0555467093
 C         -0.2972563976       -3.7159879790       -0.1726613375
 C          0.6447743943       -4.8342384652        0.1553025386
 C         -0.6043089567       -4.6462853638        0.9610854787
 H         -1.4099467035       -5.3551689810        0.8430366715
 H         -0.5150556689       -4.2517089932        1.9631386442
 H          0.6959987552       -5.6785472452       -0.5154689910
 H          1.5863408590       -4.5766850649        0.6162201701
 H         -0.9040982904       -3.7985073788       -1.0665192863
 O         -2.0673249237       -1.7229297654       -1.6874808207
