  62
        -98.94484045
 C         -2.4404467706       -1.1877564394       -0.0868994213
 C         -3.2121278107       -0.5069831303        0.8925341093
 C         -3.9006872604        0.7127767103        0.4554256005
 C         -3.7791510701        1.1098932017       -0.8238981390
 C         -4.3785632598        2.3605459924       -1.3967704777
 C         -3.4015616896        3.5401119921       -1.2956246262
 C         -2.7898392898        3.7193614405        0.0941069541
 H         -2.1399264300        2.8674328801        0.3106394732
 H         -2.1485406796        4.6027407404        0.0539654152
 C         -3.8158265800        3.8811843994        1.2247718241
 H         -3.4936739799        4.6990600486        1.8725558050
 H         -4.7843191198        4.1597635700        0.8079315042
 C         -3.9816075203        2.6476313684        2.1144027727
 H         -4.5499159404        2.9422444976        3.0005503229
 H         -2.9994749304        2.3071101279        2.4524203625
 C         -4.7114063704        1.4580959793        1.4778118712
 H         -4.9278051107        0.7374187484        2.2716581404
 H         -5.6578941703        1.7931576899        1.0490634114
 H         -2.5873295795        3.3792923428       -2.0066536063
 H         -3.9294206094        4.4512367125       -1.5834772953
 H         -4.6097902296        2.1814033736       -2.4481676580
 H         -5.2998013098        2.5917009020       -0.8655607376
 O         -3.0483435201        0.4266839826       -1.7387660696
 C         -2.3440677403       -0.7186749779       -1.3967596208
 O         -1.7010553503       -1.2021380970       -2.3518599212
 H          0.2401625295       -1.7144457684       -1.3770027814
 C          0.6022405893       -1.7108395896       -0.3593951414
 C         -0.2565847909       -2.0659926806        0.6716135381
 C          0.2189362889       -2.0189967822        1.9769514282
 C          1.5196483689       -1.6259778727        2.2403877889
 C          2.3673672591       -1.2603023817        1.2098903694
 C          1.8972806993       -1.2945613302       -0.0960784707
 N          2.7434624696       -0.8737417591       -1.1485022501
 S          3.0912286099        0.7766213608       -1.1228430082
 O          2.0262618899        1.5292801003       -0.4971327875
 O          3.4151903302        1.1295605722       -2.4880856677
 C          4.5681572697        0.8708838694       -0.1325660578
 C          5.7092530997        0.2539295897       -0.6074192483
 C          6.8664406396        0.3118543287        0.1526592919
 C          6.8629711395        0.9827439873        1.3667634627
 C          5.7097932495        1.5991158970        1.8281251732
 C          4.5484872097        1.5445035881        1.0728307929
 H          3.6263921997        2.0037746379        1.3917776133
 H          5.7089656995        2.1203045160        2.7719448638
 H          7.7645709894        1.0262205665        1.9570790029
 H          7.7653032096       -0.1655360011       -0.2028181084
 H          5.6674837498       -0.2508830292       -1.5580574789
 H          2.3639679197       -1.1060728781       -2.0570847604
 H          3.3786193591       -0.9435634421        1.4071371599
 H          1.8745860187       -1.5964256739        3.2591974490
 H         -0.4481584013       -2.2721928329        2.7881557978
 C         -1.6934743409       -2.4277995400        0.3811799474
 H         -2.1680567712       -2.7050672710        1.3319759670
 C         -1.8014099910       -3.6027041790       -0.5691515739
 C         -1.5261339913       -4.9809694996       -0.0495845954
 C         -2.9259683112       -4.5781613989       -0.4014481652
 H         -3.3791105011       -4.9967554979       -1.2874913457
 H         -3.6244127513       -4.4016939197        0.4035003949
 H         -1.0150050413       -5.6803957890       -0.6929717361
 H         -1.2753834615       -5.0791539408        0.9956798946
 H         -1.4934250608       -3.3736533779       -1.5807966436
 O         -3.3227140510       -0.9095509816        2.0810167088
