  62
        -98.93432365
 C         -2.3236192075       -1.1813798650        0.0796280876
 C         -3.2620717740       -0.5302273171        0.9151422377
 C         -4.1439524688        0.4746133063        0.2895017916
 C         -3.9819994562        0.7480320622       -1.0183169077
 C         -4.7270117640        1.7476947396       -1.8625420924
 C         -4.2793159868        3.1949134804       -1.6024772516
 C         -4.1086680687        3.5601795303       -0.1302231817
 H         -3.3794109051        2.8868288539        0.3245340030
 H         -3.6894526260        4.5688891317       -0.0845164183
 C         -5.3927803120        3.5506852284        0.6958763510
 H         -5.1391588571        3.9191576902        1.6933189347
 H         -6.1066647144        4.2504453551        0.2557882300
 C         -6.0778247257        2.1913752811        0.8531513078
 H         -6.6301204869        1.9232812347       -0.0434949182
 H         -6.8163009818        2.2903944199        1.6541131598
 C         -5.1476810031        1.0521632372        1.2582992280
 H         -5.7593729119        0.2037083088        1.5888396493
 H         -4.5752001456        1.3531815081        2.1433931110
 H         -5.0029917759        3.8681728421       -2.0648382741
 H         -3.3157995915        3.3439846862       -2.0959565918
 H         -4.5113063993        1.4996942839       -2.9041306498
 H         -5.7969426749        1.6399533427       -1.7111860716
 O         -3.0254233570        0.1369800034       -1.7726874079
 C         -2.1757294216       -0.8307406551       -1.2627073918
 O         -1.3601469584       -1.2749727349       -2.0905581249
 O         -3.3603553236       -0.7696475430        2.1499843431
 C         -1.4204859662       -2.2253512777        0.7097702867
 C          0.0169838016       -1.9795277288        0.3229983330
 C          0.8302998248       -2.9322042490       -0.2747714217
 C          2.1443289865       -2.6323597397       -0.5906023579
 C          2.6741165633       -1.3844422713       -0.3225039943
 C          1.8713361252       -0.4238006474        0.2793712746
 C          0.5599123413       -0.7311763638        0.6051450139
 H         -0.0656689499        0.0188069573        1.0757254112
 N          2.3943954619        0.8555214256        0.5379854855
 S          3.8598219120        0.9711974523        1.3483753791
 O          4.0614245291       -0.1488654743        2.2384448955
 O          3.8487958431        2.2825258465        1.9597691098
 C          5.0770480020        0.9469142083        0.0496737824
 C          6.0922265058        0.0108126554        0.0752293136
 C          7.0343407786        0.0164773262       -0.9416757741
 C          6.9458384386        0.9540205540       -1.9591985736
 C          5.9217097863        1.8894285459       -1.9684136934
 C          4.9771666115        1.8897322069       -0.9545497159
 H          4.1680786198        2.6004088634       -0.9237023903
 H          5.8558120175        2.6167681891       -2.7615294811
 H          7.6789264984        0.9559277713       -2.7503249367
 H          7.8312324175       -0.7096653307       -0.9363245473
 H          6.1173303707       -0.7022071494        0.8838288332
 H          1.7211596268        1.4993183417        0.9271366738
 H          3.6939852138       -1.1459894105       -0.5761706536
 H          2.7630129463       -3.3811295165       -1.0612500657
 H          0.4317364472       -3.9043655159       -0.5127010481
 H         -1.5093177387       -2.0408748031        1.7944282390
 C         -1.8722614462       -3.6602531637        0.4815422717
 C         -3.3073714332       -3.9847923575        0.1960199019
 C         -2.2715464273       -4.1696098133       -0.8698991255
 H         -1.9916289607       -5.1772663024       -1.1404276707
 H         -2.2461730466       -3.4725476818       -1.6924101778
 H         -3.7359580754       -4.8613014901        0.6584574365
 H         -3.9987913583       -3.1600541706        0.0999314306
 H         -1.3458399254       -4.3561904392        1.1277487959
