  62
        -98.94904094
 C         -0.8965829011       -1.3473571080        0.2383734446
 C         -1.4448127859       -0.2673860335        0.9672029157
 C         -2.2702301663        0.6731205380        0.1983076480
 C         -2.3987374424        0.4990438830       -1.1298860613
 C         -3.2203004760        1.3746741706       -2.0312003147
 C         -4.6510801888        0.8388866037       -2.1787278495
 C         -5.3226901998        0.5068944341       -0.8461469705
 H         -6.3370063786        0.1688550823       -1.0686068651
 H         -4.7977715705       -0.3321884450       -0.3838169364
 C         -5.3784775614        1.6782749636        0.1443115818
 H         -5.2193782105        2.6182465177       -0.3852764990
 H         -6.3778724055        1.7180343559        0.5825227533
 C         -4.3872685669        1.5749019219        1.3047947824
 H         -4.4777592189        0.5928550851        1.7754023494
 H         -4.6621436874        2.3234803355        2.0525252732
 C         -2.9119559096        1.8047706099        0.9516911524
 H         -2.8059847169        2.7445977669        0.4049073967
 H         -2.3580596157        1.8825177430        1.8916944952
 H         -5.2445233099        1.5824173220       -2.7140771159
 H         -4.6187728727       -0.0701059750       -2.7838773318
 H         -3.2389571836        2.3859112217       -1.6285136026
 H         -2.7417029795        1.3959496864       -3.0122567184
 O         -1.8279042359       -0.5313439699       -1.8031284534
 C         -1.0636648910       -1.4788016996       -1.1409121725
 O         -0.6080664666       -2.3775472247       -1.8741255936
 H          1.3767877617       -0.1823962996        0.3493827986
 C          1.9246663126       -1.0742982218        0.0821621546
 C          1.3656207297       -2.3186068672        0.3462204544
 C          2.0917551479       -3.4552269137        0.0173719816
 C          3.3256506013       -3.3400119540       -0.6002017903
 C          3.8486887317       -2.1002739348       -0.9175645624
 C          3.1365530817       -0.9558452025       -0.5750556160
 N          3.6303432663        0.3234807851       -0.8681832712
 S          2.5703177390        1.5703262081       -1.2193848425
 O          1.3819071112        1.1142085240       -1.9021858707
 O          3.3836497705        2.5296307577       -1.9396249351
 C          2.1641991536        2.2582579899        0.3707584931
 C          3.1890458641        2.4889484058        1.2674241020
 C          2.8886265234        3.0579101446        2.4941695242
 C          1.5776408973        3.3927060297        2.7981218096
 C          0.5617849450        3.1611683355        1.8843132789
 C          0.8547376535        2.5862490016        0.6578656051
 H          0.0897014060        2.3702844689       -0.0729708237
 H         -0.4578743292        3.4182498065        2.1213764178
 H          1.3430931971        3.8355303945        3.7532026991
 H          3.6753949576        3.2385976868        3.2087383846
 H          4.1948051409        2.2189442073        0.9922693162
 H          4.4520739541        0.3442512962       -1.4542307932
 H          4.7942146660       -2.0142475644       -1.4308754644
 H          3.8781216986       -4.2307035126       -0.8586544611
 H          1.6858683142       -4.4311064234        0.2277358721
 C         -0.0120395786       -2.3483275110        0.9605423193
 H          0.0594287277       -1.9840125680        1.9964055044
 C         -0.6465316354       -3.7227865785        0.9664862083
 C         -0.3704109695       -4.6796062675        2.0867059826
 C         -1.7124882700       -4.0228795826        1.9760950191
 H         -2.5584899265       -4.6201308802        1.6706376360
 H         -1.9608650544       -3.2417455410        2.6796768620
 H         -0.2969938249       -5.7322703037        1.8588652920
 H          0.2903457122       -4.3499453421        2.8738947906
 H         -0.7760273710       -4.1233573955       -0.0328658197
 O         -1.2479700401       -0.0935457220        2.2006840361
