  62
        -98.94045976
 C         -2.2589982170       -1.0253392873       -0.3467452342
 C         -3.5898254748       -1.1213685036        0.1301629982
 C         -4.5210548029       -0.0968193111       -0.3531760745
 C         -4.0884633506        0.8453325604       -1.2106625235
 C         -4.9203361449        1.9481486372       -1.8073448387
 C         -5.0510792110        3.1846049371       -0.9073289809
 C         -5.9558571141        3.0073073511        0.3126959972
 H         -6.1286175567        4.0013532605        0.7298259695
 H         -6.9218117590        2.6156864221       -0.0074311339
 C         -5.3709026883        2.1068742830        1.4098147945
 H         -4.2945372223        1.9975014563        1.2561538268
 H         -5.5073633345        2.5837070717        2.3830516359
 C         -6.0032943507        0.7175233961        1.4937788788
 H         -5.4913182667        0.1555749941        2.2789389560
 H         -7.0542411989        0.8099113196        1.7761998773
 C         -5.9160468240       -0.0963702084        0.1958435152
 H         -6.6152027906        0.2955709918       -0.5421940418
 H         -6.1852731665       -1.1311231800        0.4206834237
 H         -4.0523900338        3.4851024574       -0.5813541655
 H         -5.4572247443        3.9923264612       -1.5205833892
 H         -4.4220140480        2.2464510143       -2.7322281761
 H         -5.9121793266        1.5680090965       -2.0530608322
 O         -2.8059713782        0.8933935089       -1.6604291638
 C         -1.8533846878       -0.0172922500       -1.2215123098
 O         -0.7149834358        0.1760225316       -1.6900208518
 O         -3.9796346253       -2.0201819483        0.9223587030
 C         -1.2373699346       -2.0305717360        0.1588241882
 C         -0.2559138206       -1.3036720254        1.0449648864
 C         -0.7072703910       -0.8262056928        2.2740258879
 C          0.1340481270       -0.1179952974        3.1086104228
 C          1.4406104081        0.1367275535        2.7292742933
 C          1.9023018248       -0.3369242681        1.5072853517
 C          1.0576683994       -1.0614627171        0.6757839632
 H          1.4338031481       -1.4044459848       -0.2726280790
 N          3.2414013000       -0.1210544897        1.1263438321
 S          3.5771940285        0.3793857504       -0.4541262700
 O          2.8569588662        1.5967645309       -0.7549393900
 O          3.3979320721       -0.7318357203       -1.3518246368
 C          5.3187355083        0.7334803666       -0.2872512890
 C          5.7335635926        2.0389609909       -0.1046285758
 C          7.0862651022        2.2981787598        0.0515199299
 C          7.9963772763        1.2523481911        0.0258333431
 C          7.5654085982       -0.0529981161       -0.1592998074
 C          6.2145113954       -0.3183696184       -0.3173865002
 H          5.8335575895       -1.3140694968       -0.4729975427
 H          8.2763344285       -0.8630879669       -0.1818511525
 H          9.0483931686        1.4563629979        0.1476436146
 H          7.4239365260        3.3124048820        0.1917742859
 H          4.9902399387        2.8201614768       -0.1009868831
 H          3.7159115572        0.4966914326        1.7733253226
 H          2.0989062008        0.6972813431        3.3761459820
 H         -0.2293295858        0.2460048375        4.0579023968
 H         -1.7333366235       -1.0150728477        2.5589674555
 H         -1.8082655072       -2.7298947521        0.7867818304
 C         -0.5960801139       -2.8058636000       -0.9703221776
 C          0.0721643310       -4.1147981995       -0.6774985844
 C         -1.2254293542       -4.0867445035       -1.4263714459
 H         -1.2191422089       -4.3154013308       -2.4815378693
 H         -2.1187816744       -4.4124640657       -0.9137110975
 H          0.9742887642       -4.3615288814       -1.2162997740
 H          0.0598305580       -4.4613324595        0.3448421448
 H         -0.1562994059       -2.1699493242       -1.7302525467
