  62
        -98.93798940
 C         -2.6221507223       -1.0050166153        0.5298975721
 C         -2.8701762541        0.1980812511        1.2421608740
 C         -4.1446006362        0.8724808903        0.9690501230
 C         -4.9985757408        0.3236050451        0.0863220250
 C         -6.3160255966        0.9170705727       -0.3189738403
 C         -6.1645433417        1.8232022775       -1.5485090612
 C         -5.0281111770        2.8387529986       -1.4298864345
 H         -4.0744398971        2.3058871274       -1.4087709028
 H         -5.0364864609        3.4439673412       -2.3390440904
 C         -5.1228024668        3.7568784443       -0.2032020233
 H         -4.9141944891        4.7818872977       -0.5168483715
 H         -6.1382269816        3.7404339581        0.1943583604
 C         -4.1345356327        3.4239776501        0.9162601622
 H         -3.1261678461        3.3435682569        0.5022080831
 H         -4.1319908636        4.2561517594        1.6253163134
 C         -4.4321992662        2.1467731831        1.7120188460
 H         -5.4668235945        2.1635633963        2.0607420986
 H         -3.7745541552        2.1387193702        2.5860967290
 H         -5.9716329276        1.1943014567       -2.4207326076
 H         -7.1084200415        2.3472524250       -1.7094686205
 H         -6.7242471172        1.4841078165        0.5154411250
 H         -6.9994803598        0.1016156850       -0.5616713806
 O         -4.7314746834       -0.8283429651       -0.5755573350
 C         -3.5395515387       -1.5155398507       -0.3891987948
 O         -3.4482938118       -2.5414021087       -1.0910684724
 O         -2.0608633985        0.6795568055        2.0804922617
 C         -1.3064234886       -1.7054244367        0.8245627768
 C         -0.2620513800       -1.3734147584       -0.2155409303
 C         -0.3888680640       -1.7948403028       -1.5349307220
 C          0.5872308711       -1.4841343033       -2.4642355911
 C          1.7049364623       -0.7529417235       -2.1019461380
 C          1.8423553394       -0.3286604100       -0.7873603545
 C          0.8618432189       -0.6446480621        0.1457470538
 H          0.9642703028       -0.3020904287        1.1667872392
 N          2.9646682436        0.4305870809       -0.4131169267
 S          4.4633715971       -0.0312181528       -1.0426954517
 O          4.6006893193        0.5429946039       -2.3578889632
 O          4.6141152872       -1.4664951298       -0.9615793064
 C          5.5765052376        0.7769739610        0.0895618633
 C          5.8482198530        2.1203261132       -0.0884805729
 C          6.6984214152        2.7545538698        0.8032763170
 C          7.2587842633        2.0397706197        1.8517101313
 C          6.9770766333        0.6919938409        2.0167730453
 C          6.1264450233        0.0516065629        1.1294184906
 H          5.8865217226       -0.9962891691        1.2134665700
 H          7.4166141767        0.1384599563        2.8308892256
 H          7.9218568486        2.5355217930        2.5429880138
 H          6.9221275496        3.8016371582        0.6777338094
 H          5.3978547249        2.6326980550       -0.9225449522
 H          3.0119173947        0.5793861280        0.5855390153
 H          2.4739000198       -0.5113416807       -2.8182666297
 H          0.4776826350       -1.8161291234       -3.4860594875
 H         -1.2638025052       -2.3550340766       -1.8268079921
 H         -0.9691719466       -1.2792731393        1.7793057592
 C         -1.4404860524       -3.2057654734        0.9955282827
 C         -0.3769538700       -3.9446726644        1.7489494963
 C         -1.7366847061       -3.7649168676        2.3531957332
 H         -2.3891253035       -4.6219894429        2.4249228778
 H         -1.8438982144       -3.0655390726        3.1696064352
 H         -0.0907306493       -4.9266296366        1.4050083527
 H          0.4397116512       -3.3675375246        2.1558791023
 H         -1.8919403999       -3.6999161931        0.1457414998
