  62
        -98.94006296
 C         -2.6522905889       -1.1315946540        0.2606777794
 C         -2.5522425747       -0.2873026467       -0.8732219894
 C         -3.3714065694        0.9351228989       -0.8354407800
 C         -4.1460307346        1.1837127290        0.2351048071
 C         -4.9779369198        2.4180448224        0.4262241051
 C         -4.1886071656        3.5075504452        1.1659633600
 C         -2.7965911162        3.7633354751        0.5874582513
 H         -2.3453283193        4.5687765710        1.1711992476
 H         -2.1787348464        2.8744627862        0.7372659294
 C         -2.7864225899        4.1413871459       -0.9004271221
 H         -2.1081192819        4.9853698767       -1.0417867627
 H         -3.7806267606        4.4704949909       -1.2047342618
 C         -2.3133248450        3.0270195408       -1.8359091218
 H         -2.1377731414        3.4637181592       -2.8224881293
 H         -1.3595529181        2.6280863348       -1.4805505412
 C         -3.2853397663        1.8548631353       -2.0208040615
 H         -4.2735721707        2.2335548128       -2.2889746757
 H         -2.9132147291        1.2436890811       -2.8481481187
 H         -4.7694377339        4.4313082217        1.1424548649
 H         -4.0750286879        3.2044750357        2.2096252917
 H         -5.8563964324        2.1539189187        1.0174000150
 H         -5.3026211270        2.7854724817       -0.5452033670
 O         -4.2131061014        0.3522899031        1.3071818437
 C         -3.4508047074       -0.8038356967        1.3585710418
 O         -3.5635637566       -1.4429912657        2.4245480433
 O         -1.8201400490       -0.5251536297       -1.8667835229
 C         -1.8209201853       -2.3975791138        0.3813244766
 C         -0.3966398469       -2.1114099832       -0.0314639281
 C          0.2891358767       -2.8275750686       -1.0025005525
 C          1.5958690839       -2.4996851740       -1.3209507435
 C          2.2437831921       -1.4561392867       -0.6870817707
 C          1.5702068756       -0.7373822743        0.2922680353
 C          0.2672486987       -1.0777489242        0.6192737415
 H         -0.2579497907       -0.5169821670        1.3846120371
 N          2.2084382417        0.3410734784        0.9284284035
 S          3.7636100619        0.1271855781        1.5196714151
 O          4.0025884424       -1.2463234326        1.8983523118
 O          3.9065739008        1.1154370585        2.5668998365
 C          4.8092199707        0.5778697072        0.1512381618
 C          5.7915194975       -0.2909444960       -0.2817524637
 C          6.6010627557        0.0878523009       -1.3414977286
 C          6.4154185123        1.3220807265       -1.9450496156
 C          5.4257442215        2.1841072968       -1.4964100040
 C          4.6140376452        1.8121349491       -0.4368316800
 H          3.8358949580        2.4533483474       -0.0573540666
 H          5.2835138525        3.1428695282       -1.9685794657
 H          7.0455133044        1.6144513130       -2.7701396494
 H          7.3711446214       -0.5804913928       -1.6916971652
 H          5.8953404621       -1.2428486949        0.2142541103
 H          1.6299460841        0.8181238385        1.6041783766
 H          3.2573053071       -1.1922555880       -0.9413941929
 H          2.1145100004       -3.0603666163       -2.0836333875
 H         -0.2050463493       -3.6279798443       -1.5276905991
 H         -1.8125339443       -2.6287012901        1.4602358228
 C         -2.4217867683       -3.6111643320       -0.3122603480
 C         -3.8987941148       -3.7153754717       -0.5463086680
 C         -2.9663961444       -3.5491682463       -1.7064640438
 H         -2.8051940095       -4.3965687580       -2.3567889486
 H         -2.9337119577       -2.5971717403       -2.2113245830
 H         -4.3738861953       -4.6734481137       -0.3970273853
 H         -4.5129915850       -2.8750578225       -0.2559606974
 H         -1.9189346849       -4.5296175554       -0.0248431101
