  62
        -98.93920958
 C          2.6388311298        1.2600216206        0.3975182501
 C          2.9776118892        0.1349661439        1.1924318997
 C          4.1371161662       -0.6516332856        0.7560465719
 C          4.8084858229       -0.2701766538       -0.3457581481
 C          5.9784962237       -1.0020652864       -0.9353022031
 C          5.5218690801       -2.0299719837       -1.9798758018
 C          4.3882899237       -2.9365446699       -1.4999746104
 H          3.4885002770       -2.3354415885       -1.3479257745
 H          4.1702386198       -3.6401213010       -2.3063864633
 C          4.6991343356       -3.7147164343       -0.2137306195
 H          4.3763492496       -4.7497808700       -0.3441909305
 H          5.7758194889       -3.7302797877       -0.0405631069
 C          3.9934219943       -3.1836260240        1.0356051935
 H          4.1043548450       -3.9264013797        1.8303512881
 H          2.9235550376       -3.0777128212        0.8358737483
 C          4.5168695772       -1.8487838840        1.5809700611
 H          4.0635573820       -1.6912689065        2.5641503780
 H          5.6002814069       -1.9026404819        1.7067670291
 H          6.3818338885       -2.6394251399       -2.2632975257
 H          5.1777685056       -1.4931829121       -2.8668094581
 H          6.5284693615       -1.4981193032       -0.1379516181
 H          6.6322722715       -0.2733712626       -1.4173845849
 O          4.4607070579        0.8140608469       -1.0803929364
 C          3.3600865427        1.5976414300       -0.7487425796
 O          3.1599902786        2.5344743840       -1.5414517233
 O          2.3388047123       -0.1883066555        2.2314127396
 C          1.4349608767        2.0671239326        0.8508509973
 C          0.1806699992        1.5159729412        0.2221909984
 C          0.0588580689        1.3960795013       -1.1592566127
 C         -1.0919707562        0.8692064284       -1.7156649032
 C         -2.1375187416        0.4453985275       -0.9128102665
 C         -2.0163619696        0.5377545053        0.4666766617
 C         -0.8635039135        1.0795241932        1.0230547572
 H         -0.7672655972        1.1395415299        2.0987932279
 N         -3.0685338209        0.1100516260        1.2900882665
 S         -3.8526363459       -1.3325681993        0.9437928334
 O         -4.4198149728       -1.7586699092        2.2042084100
 O         -2.9772407332       -2.2706219204        0.2808394732
 C         -5.1720236141       -0.8426091712       -0.1477490650
 C         -5.3375672677       -1.4835137940       -1.3598341114
 C         -6.3776824543       -1.0921084148       -2.1886517067
 C         -7.2300326602       -0.0731159294       -1.7921743547
 C         -7.0525855031        0.5579750199       -0.5698517475
 C         -6.0156467611        0.1707341910        0.2636192564
 H         -5.8465222969        0.6335402441        1.2214404381
 H         -7.7176878818        1.3497050654       -0.2647400226
 H         -8.0373240316        0.2307483724       -2.4396889355
 H         -6.5177325521       -1.5826661447       -3.1385532828
 H         -4.6473867457       -2.2673256777       -1.6295392591
 H         -2.8757903598        0.1899397578        2.2780270347
 H         -3.0319074778        0.0279072632       -1.3451022164
 H         -1.1769291639        0.7856175558       -2.7886432516
 H          0.8775191609        1.7169273649       -1.7861072218
 H          1.3687104099        1.8768979325        1.9342144578
 C          1.5989455125        3.5688262903        0.6669215755
 C          0.7831526948        4.3877638073       -0.2833760085
 C          0.5440329009        4.4988575867        1.1904460817
 H          0.8518895000        5.3971678258        1.7036044311
 H         -0.3570985658        4.0511578412        1.5825779060
 H          1.2811445687        5.1975400402       -0.7941515730
 H          0.0388725137        3.8887961516       -0.8830647413
 H          2.6297710179        3.8801940248        0.8003197064
