  62
        -98.94622393
 C         -1.3735481206       -1.1202134059       -0.1440911819
 C         -2.4700751707       -1.1320630395        0.7549545579
 C         -3.2306851584        0.1189106000        0.8643049055
 C         -2.8351206413        1.1907601216        0.1534266391
 C         -3.5481066612        2.5111794653        0.1314363084
 C         -4.5861947736        2.5616433030       -0.9982707900
 C         -5.5154028555        1.3485005856       -1.0375307765
 H         -6.2252451348        1.5079656422       -1.8521315323
 H         -4.9322189224        0.4598564542       -1.2894358497
 C         -6.2837830528        1.0954429752        0.2671162206
 H         -7.3258329233        0.8777963951        0.0233633626
 H         -6.2775093854        1.9960302147        0.8822463253
 C         -5.7638544791       -0.0843344508        1.0907696553
 H         -6.5007077488       -0.3080073820        1.8669091974
 H         -5.6828936663       -0.9684695568        0.4532963345
 C         -4.4152650971        0.1320331115        1.7890793760
 H         -4.4448824227        1.0581843166        2.3666687993
 H         -4.2638645198       -0.7001408287        2.4827989544
 H         -4.0576535941        2.6181428030       -1.9525621863
 H         -5.1781972042        3.4714586850       -0.8830578098
 H         -4.0335959880        2.6729491762        1.0917672569
 H         -2.8131345768        3.3006751602       -0.0307388045
 O         -1.7602509051        1.1749274773       -0.6722378391
 C         -1.0044887208        0.0258747353       -0.8503696947
 O         -0.0612147414        0.1627435966       -1.6513133098
 H          1.7759396412       -1.4890971275       -1.3997196661
 C          1.8619357467       -1.6487470844       -0.3369583965
 C          0.7806039778       -2.1428834912        0.3768858504
 C          0.9126074677       -2.3139790559        1.7518918233
 C          2.0961641061       -1.9987626527        2.3937180345
 C          3.1673297015       -1.4876032416        1.6809041123
 C          3.0384580043       -1.3007955076        0.3113553940
 N          4.1085064375       -0.7340247200       -0.4169619070
 S          4.5139931505        0.8391460613       -0.0048471458
 O          5.3951799977        1.2980468453       -1.0546777613
 O          5.0627404107        0.8402527404        1.3282472269
 C          2.9904293914        1.7661239590       -0.0342389981
 C          2.1691396634        1.7503756263        1.0749892667
 C          0.9709063536        2.4436362790        1.0284198407
 C          0.6189613832        3.1389789271       -0.1171553484
 C          1.4517812876        3.1403778393       -1.2239447258
 C          2.6470470510        2.4427696294       -1.1865367017
 H          3.3234224674        2.4189362542       -2.0260909678
 H          1.1672943225        3.6727884477       -2.1172544277
 H         -0.3155745456        3.6763339643       -0.1510066947
 H          0.3123707942        2.4319387501        1.8831633516
 H          2.4771984273        1.2048868155        1.9523008523
 H          3.9585339478       -0.7746251689       -1.4161010431
 H          4.0877688501       -1.2069331990        2.1667651848
 H          2.1854176598       -2.1442879229        3.4597482241
 H          0.0673627667       -2.6839967403        2.3150991733
 C         -0.5536589216       -2.3940888731       -0.2783481606
 H         -1.0894625537       -3.1493461579        0.3115838890
 C         -0.4534331729       -2.8747286394       -1.7105643942
 C          0.0451368638       -4.2618868331       -1.9815986749
 C         -1.3996266753       -3.9288819701       -2.1982444782
 H         -1.7679878399       -3.8615530100       -3.2110150895
 H         -2.1237949833       -4.3154631544       -1.4961727157
 H          0.3026909222       -4.8730451711       -1.1298259390
 H          0.6707932549       -4.4267711156       -2.8454719885
 H         -0.1841329063       -2.0943380465       -2.4113277665
 O         -2.7978925084       -2.1433698067        1.4312793602
