  62
        -98.94633950
 C         -1.7846933200       -0.7474486163        0.2258836870
 C         -3.0800115152       -0.9920692258        0.7411221283
 C         -3.9988820614        0.1538776974        0.7369948456
 C         -3.5650892445        1.3432081629        0.2805006924
 C         -4.4107933685        2.5779048369        0.1692219129
 C         -5.0783811400        2.6701950304       -1.2100844113
 C         -5.7823400427        1.3840700347       -1.6429627965
 H         -6.2416885275        1.5761381847       -2.6151026753
 H         -5.0353460061        0.6006263035       -1.7907522665
 C         -6.8522973372        0.8847248771       -0.6619254677
 H         -7.1464200024        1.6929894946        0.0086043576
 H         -7.7394571573        0.5953752108       -1.2292029043
 C         -6.4361235168       -0.3333181073        0.1648991153
 H         -6.0528645538       -1.1127073489       -0.4987207585
 H         -7.3279733859       -0.7318173148        0.6558641551
 C         -5.3906209885       -0.0728314226        1.2566725382
 H         -5.7113157187        0.7634583567        1.8811002600
 H         -5.3345260195       -0.9680606947        1.8829787292
 H         -5.7969911365        3.4915583071       -1.1917016988
 H         -4.3112857591        2.9059442169       -1.9513698109
 H         -5.1680475073        2.5655282899        0.9506325066
 H         -3.7688951200        3.4488672833        0.3109500390
 O         -2.3048165717        1.5460663722       -0.1811159662
 C         -1.3873002091        0.5071601528       -0.2339423648
 O         -0.2762883955        0.8272635078       -0.6954962967
 H          1.8680228685       -1.9161498978       -0.6385949435
 C          1.7263616289       -1.6097876299        0.3837737313
 C          0.4581362388       -1.5379222342        0.9371210039
 C          0.3321540728       -1.1341490063        2.2649793257
 C          1.4439714399       -0.7997494166        3.0122152763
 C          2.7077641860       -0.8524493787        2.4488613131
 C          2.8457304259       -1.2592157488        1.1284477717
 N          4.1186699292       -1.3485354795        0.5324111862
 S          4.4398877160       -0.4789380664       -0.8627622565
 O          3.5507685764       -0.8923494461       -1.9159851241
 O          5.8524714605       -0.6831556065       -1.1018333168
 C          4.1580769383        1.2225123843       -0.4066827415
 C          2.8670396787        1.7065866388       -0.3427647198
 C          2.6688048250        3.0125201024        0.0801718394
 C          3.7507419928        3.8049812692        0.4295953331
 C          5.0413015796        3.3014433709        0.3593900366
 C          5.2483214598        1.9970759052       -0.0573807496
 H          6.2331490237        1.5646273137       -0.1316502556
 H          5.8825401961        3.9193715219        0.6293502909
 H          3.5862594453        4.8195986563        0.7570495921
 H          1.6602626519        3.3915510347        0.1312721754
 H          2.0307884683        1.0835953498       -0.6185646160
 H          4.8799131423       -1.2161325212        1.1841514631
 H          3.5788542811       -0.5855492270        3.0280004280
 H          1.3279400824       -0.4891951303        4.0395558523
 H         -0.6562226216       -1.0859206377        2.7018105480
 C         -0.7890762153       -1.8916231472        0.1667694694
 H         -1.2805568311       -2.7330355983        0.6779164423
 C         -0.5265349694       -2.2864920001       -1.2711708888
 C         -0.1220626993       -3.6902949063       -1.6042083555
 C         -1.4924126155       -3.2002314042       -1.9614725268
 H         -1.7225043936       -3.0184321485       -3.0007166729
 H         -2.3316250147       -3.5610989049       -1.3845687693
 H          0.5941049231       -3.8432601117       -2.3976942461
 H         -0.0311916130       -4.3909466085       -0.7879375776
 H         -0.0964021080       -1.4817463760       -1.8582067006
 O         -3.4470902252       -2.1124696063        1.1868707834
