  62
        -98.93417388
 C         -2.6139105248       -0.1000468185        0.2026508418
 C         -2.6434844142        1.0808061043        0.9823931643
 C         -2.1987635356        2.3230938841        0.3297098349
 C         -1.7707844635        2.2701802410       -0.9434783688
 C         -1.1918074439        3.3909159480       -1.7617934398
 C          0.3431891660        3.3957906021       -1.6488085394
 C          0.8938820425        4.2221575880       -0.4880856373
 H          1.9742532950        4.0624401225       -0.4637089989
 H          0.7205499721        5.2830141630       -0.6830017750
 C          0.3104043790        3.8660896015        0.8816512308
 H          0.2312856805        2.7795448409        0.9624487269
 H          1.0144500278        4.1991094667        1.6471304654
 C         -1.0534582993        4.5226206129        1.1442978931
 H         -1.2241018798        5.2952276503        0.3946261508
 H         -1.0294225447        5.0289893676        2.1115403936
 C         -2.2546040654        3.5654141389        1.1771579079
 H         -2.3972973835        3.1958737925        2.1975762759
 H         -3.1606209280        4.1230437743        0.9168957987
 H          0.7637904449        3.7868683749       -2.5778397237
 H          0.6778146291        2.3593052044       -1.5451494540
 H         -1.6132379501        4.3466813825       -1.4629060372
 H         -1.4650495470        3.1926242695       -2.8003484341
 O         -1.7610887941        1.1164447975       -1.6629208224
 C         -2.1281262444       -0.0964249521       -1.1076461295
 O         -1.9953663810       -1.0650725272       -1.8792168938
 O         -3.0046802357        1.0913986395        2.1921354198
 C         -2.9250596101       -1.4150621247        0.9025851990
 C         -1.7438980613       -2.3270862636        0.6860233298
 C         -1.8042423731       -3.5803211591        0.0936698763
 C         -0.6421359114       -4.2836154101       -0.1793780790
 C          0.5996731391       -3.7483524405        0.1127765282
 C          0.6648115118       -2.5085082006        0.7299433297
 C         -0.4963066879       -1.8236183253        1.0344342741
 H         -0.4319239611       -0.8433351674        1.4931545025
 N          1.9369993454       -1.8982310393        0.9579730672
 S          2.2640493957       -0.8530725578       -0.3418810533
 O          1.4162970090        0.3181767399       -0.2701333986
 O          2.2086573998       -1.6272870261       -1.5549623080
 C          3.9540001942       -0.3957928754       -0.0001654589
 C          4.9321476705       -1.3580468382       -0.1621312002
 C          6.2473432305       -1.0306501989        0.1248693159
 C          6.5605298543        0.2465985676        0.5666378385
 C          5.5678742107        1.2015407735        0.7238737138
 C          4.2494626896        0.8791018012        0.4406010334
 H          3.4439616181        1.5889742560        0.5445278457
 H          5.8135604378        2.1941769264        1.0655077426
 H          7.5852083675        0.4999582042        0.7882986841
 H          7.0223259527       -1.7700613373        0.0031891074
 H          4.6400255147       -2.3327963841       -0.5154304766
 H          1.9078471531       -1.3168772700        1.7880421841
 H          1.5111420380       -4.2610245923       -0.1469041068
 H         -0.7057480817       -5.2498531482       -0.6565002872
 H         -2.7592008114       -3.9896368478       -0.1937018215
 H         -2.9607356811       -1.1468460422        1.9723916438
 C         -4.2685111135       -2.0419870656        0.5729932126
 C         -5.4177131624       -1.1957150934        0.1148546305
 C         -4.7843200918       -2.1726372108       -0.8274659171
 H         -5.3374074554       -3.0644229568       -1.0843767589
 H         -4.1646747686       -1.7965673671       -1.6255757445
 H         -6.4026435871       -1.4123839696        0.5002599591
 H         -5.2284175996       -0.1431733073       -0.0402868815
 H         -4.5115858892       -2.8510405408        1.2553237854
