  62
        -98.94435036
 C         -0.8338304351       -1.2060966042        0.2386685073
 C         -1.5550897693       -0.4529898901        1.1989945225
 C         -2.4335715798        0.5949490067        0.6677122813
 C         -2.4407269528        0.8506480212       -0.6525627342
 C         -3.2924128764        1.8741862423       -1.3527561416
 C         -4.7114488896        1.3829008674       -1.6732438926
 C         -5.6486509351        1.2646353005       -0.4704318414
 H         -5.6415208610        2.2003908912        0.0892682179
 H         -6.6581669295        1.1285899531       -0.8633913459
 C         -5.3273140179        0.0966593371        0.4726735956
 H         -4.6786214866       -0.6175984457       -0.0401483770
 H         -6.2487225829       -0.4337228703        0.7236940514
 C         -4.6684943067        0.5071350624        1.7900167363
 H         -4.4505757771       -0.3989087751        2.3617706702
 H         -5.3641008990        1.1133458410        2.3745899205
 C         -3.3584619922        1.2883688854        1.6218442474
 H         -3.5695416922        2.3023823152        1.2828803607
 H         -2.8607915963        1.3368239719        2.5937593086
 H         -5.1503642287        2.0928014872       -2.3780103495
 H         -4.6419247971        0.4158733598       -2.1766676987
 H         -3.3507771599        2.7814800257       -0.7515833984
 H         -2.7896783816        2.1039168800       -2.2940274614
 O         -1.6371942554        0.1909482125       -1.5258317975
 C         -0.8388804757       -0.8697606818       -1.1160184512
 O         -0.1978548546       -1.4004400784       -2.0413489139
 O         -1.4756609778       -0.6534142651        2.4408732562
 C          0.0129285372       -2.3613852794        0.7392421064
 C          1.3797282460       -2.3294567742        0.1033258171
 C          1.9499033827       -3.4000762772       -0.5713738084
 C          3.2134975444       -3.2816078677       -1.1242472633
 C          3.9287274246       -2.1041195974       -1.0190225121
 C          3.3636365959       -1.0229733711       -0.3491112356
 C          2.1052286887       -1.1493223354        0.2130921454
 H          1.6712453255       -0.3157490806        0.7451801782
 N          4.0423396229        0.1953186764       -0.2692266957
 S          3.6242419850        1.4275026605        0.7588323746
 O          4.7085078048        2.3768039844        0.6214333495
 O          3.3737547523        0.9535364906        2.1002585076
 C          2.1491610193        2.1363597996        0.0586693550
 C          1.0567583297        2.3803425727        0.8659749844
 C         -0.0591532370        2.9928149567        0.3192151241
 C         -0.0636148711        3.3463412648       -1.0206970593
 C          1.0369155420        3.0844954663       -1.8216956259
 C          2.1572313653        2.4774023041       -1.2788434585
 H          3.0337878481        2.2682079257       -1.8692493520
 H          1.0249629933        3.3534780216       -2.8656871252
 H         -0.9300512902        3.8302106870       -1.4422943729
 H         -0.9170132475        3.1870569167        0.9428292932
 H          1.0936517470        2.0821898681        1.9027428420
 H          4.9940320842        0.2177548998       -0.5978720883
 H          4.9098149927       -2.0123052265       -1.4588799499
 H          3.6459491374       -4.1194827818       -1.6500001992
 H          1.4009088538       -4.3201496307       -0.6847816426
 H          0.1437472059       -2.1587452620        1.8165808471
 C         -0.6728799288       -3.7162565873        0.6334559622
 C         -2.1673136520       -3.8287740491        0.6103920771
 C         -1.3726946523       -4.1567837661       -0.6160881047
 H         -1.2928104313       -5.1927161176       -0.9114849390
 H         -1.3916801458       -3.4661568862       -1.4445204467
 H         -2.6284678297       -4.6363652630        1.1591138057
 H         -2.7399778654       -2.9126554887        0.6209572435
 H         -0.1465516189       -4.4827704272        1.1940943828
