  62
        -98.93415924
 C         -2.4576631532        0.1542334631        0.4719749698
 C         -3.4346131804       -0.7334782465       -0.0439823950
 C         -4.6588004377       -0.1020066274       -0.5672274977
 C         -4.7707995033        1.2376128805       -0.5677148490
 C         -5.9785902233        1.9998890199       -1.0286913196
 C         -6.9536018826        2.2525799704        0.1298471564
 C         -7.2743700491        1.0040406084        0.9515387982
 H         -6.3692532587        0.6744166855        1.4667777645
 H         -7.9930597431        1.2964563012        1.7201981782
 C         -7.8454411335       -0.1639961882        0.1355283622
 H         -8.6959704116       -0.5856338630        0.6754197704
 H         -8.2185205083        0.2005151766       -0.8222339825
 C         -6.8604083459       -1.3089247216       -0.1075993592
 H         -6.4147158847       -1.6167830876        0.8416705846
 H         -7.4211571359       -2.1628041779       -0.4971264118
 C         -5.7275017674       -1.0155508610       -1.0990945041
 H         -6.1442985461       -0.6215592636       -2.0282258579
 H         -5.2274946226       -1.9629969139       -1.3210894369
 H         -6.5130126566        2.9972615366        0.7967734499
 H         -7.8762661771        2.6672856839       -0.2801722395
 H         -6.4747206410        1.4402503262       -1.8193011009
 H         -5.6466347341        2.9594642258       -1.4286487789
 O         -3.7971984346        2.0589749517       -0.0973816196
 C         -2.6319121239        1.5406650275        0.4386000217
 O         -1.8331394818        2.4041838504        0.8555825577
 O         -3.3139060763       -1.9842867731       -0.0782541140
 C         -1.1458397118       -0.3129675942        1.0808028844
 C         -0.0784323757       -0.4668578050        0.0269420007
 C         -0.3174564530       -1.1719132519       -1.1479836055
 C          0.6800243108       -1.3125383449       -2.0959005271
 C          1.9309218329       -0.7568773608       -1.8941947850
 C          2.1816462124       -0.0535611000       -0.7236939969
 C          1.1782569126        0.0853592288        0.2277160101
 H          1.3721070124        0.6467250025        1.1320078149
 N          3.4488074366        0.5209781699       -0.5177824938
 S          4.7869278852       -0.4476212022       -0.8841618756
 O          5.0498050009       -0.3457830298       -2.2975578351
 O          4.5780610680       -1.7841217393       -0.3745023117
 C          6.0742906089        0.3745556780        0.0327339230
 C          6.3910335888       -0.0771676681        1.2999703796
 C          7.3789030410        0.5785473494        2.0176194075
 C          8.0271928329        1.6703584102        1.4599463327
 C          7.6981221311        2.1117133613        0.1868223472
 C          6.7121404546        1.4601143470       -0.5368528859
 H          6.4302166746        1.7614186811       -1.5321754582
 H          8.2068391985        2.9589707690       -0.2439259532
 H          8.7963657362        2.1782308984        2.0200582604
 H          7.6393539196        0.2355670832        3.0060408162
 H          5.8687204313       -0.9364167073        1.6894968554
 H          3.5362472194        0.9335432686        0.4011183937
 H          2.7177982995       -0.8656893315       -2.6232368485
 H          0.4822318174       -1.8638063822       -3.0032455767
 H         -1.2877486721       -1.6174519565       -1.3058655062
 H         -0.8327299887        0.5074302013        1.7462361999
 C         -1.2999886158       -1.5566960265        1.9466758144
 C         -0.7844595527       -2.9074455100        1.5632022445
 C         -0.1076261961       -2.1333637583        2.6515653271
 H         -0.2190731913       -2.4640854206        3.6730261807
 H          0.8585359636       -1.7063839262        2.4267839595
 H         -1.3858480401       -3.7642312611        1.8256128277
 H         -0.2732213464       -3.0111857425        0.6190165142
 H         -2.2308571099       -1.5426876803        2.5046311451
