  62
        -98.94128535
 C         -0.0047550273        2.1200392865        0.0665405278
 C          0.9228600979        1.7024982399        1.0496363519
 C          2.2869526109        1.3643896696        0.5992368127
 C          2.5838454248        1.4948009683       -0.7070373246
 C          3.8649750693        1.1442146119       -1.4164357083
 C          4.0223029721       -0.3704392681       -1.6145637272
 C          3.7665505528       -1.2092364648       -0.3655786631
 H          2.7314545066       -1.0647250004       -0.0515930711
 H          3.8624550675       -2.2604637376       -0.6516779309
 C          4.7090993250       -0.9490939841        0.8078497353
 H          4.4907731482       -1.7055440315        1.5657428416
 H          5.7391258395       -1.0981003385        0.4770236680
 C          4.5998119480        0.4279819814        1.4697582603
 H          5.1409650331        1.1838355122        0.9066611703
 H          5.0900331704        0.3585058540        2.4450110440
 C          3.1711832538        0.8928946823        1.7289878593
 H          2.6227299911        0.0910752003        2.2356773146
 H          3.1967032907        1.7236717717        2.4442796209
 H          3.3028545020       -0.6906008375       -2.3736933351
 H          5.0278797347       -0.5659985539       -1.9924140810
 H          3.8176544172        1.6187993984       -2.3993906981
 H          4.7205103664        1.5551251700       -0.8887051590
 O          1.6764216415        1.9581304311       -1.6123038319
 C          0.3656598180        2.2470080084       -1.2734451754
 O         -0.3379449660        2.6078433741       -2.2367481649
 H         -0.9672028111        0.1906012785       -1.1234438880
 C         -1.9217244076        0.1408583631       -0.6251688643
 C         -2.3321901314        1.1689607903        0.2066809340
 C         -3.5937225267        1.0802275264        0.7898749462
 C         -4.4072689690       -0.0105561076        0.5471760402
 C         -3.9738650158       -1.0528479965       -0.2548897182
 C         -2.7185255893       -0.9747673433       -0.8431864651
 N         -2.2239068266       -2.0117569094       -1.6519607403
 S         -0.6446649614       -2.5304867565       -1.4420420448
 O          0.2860407681       -1.5466096226       -1.9309220232
 O         -0.6069042121       -3.8219384045       -2.0942083653
 C         -0.4843111459       -2.7374026070        0.3207622538
 C         -0.9366472684       -3.9121390964        0.8907066945
 C         -0.8962725263       -4.0477888637        2.2686443962
 C         -0.4251634865       -3.0049914704        3.0531445283
 C          0.0241976688       -1.8322826671        2.4670637938
 C         -0.0000810669       -1.6986927431        1.0880990389
 H          0.3480053652       -0.7973489817        0.6092877466
 H          0.3788991448       -1.0044948000        3.0622001615
 H         -0.4061480730       -3.1048841346        4.1268746834
 H         -1.2387989972       -4.9610579904        2.7278637531
 H         -1.2941212206       -4.6975591247        0.2446672432
 H         -2.8471283347       -2.8006378248       -1.7482719321
 H         -4.5996676912       -1.9149710642       -0.4267508283
 H         -5.3841988899       -0.0621266441        1.0025651480
 H         -3.9333981154        1.8727530496        1.4376676833
 C         -1.4338824892        2.3505851842        0.5106593670
 H         -1.3834406777        2.4439575404        1.6059797130
 C         -2.0281415230        3.6288799331       -0.0520653187
 C         -2.9256462168        4.4852156675        0.7883553654
 C         -1.5396612834        4.9499768746        0.4600969237
 H         -1.4096613227        5.7577176546       -0.2440450306
 H         -0.7972405644        4.9330382015        1.2449766338
 H         -3.7594688278        4.9767330665        0.3111572705
 H         -3.1160492423        4.1764569254        1.8050932320
 H         -2.2398764755        3.5620191305       -1.1122914588
 O          0.6220895139        1.5943445542        2.2706679455
