  62
        -98.94282980
 C         -0.7071456542       -1.3984558032        0.5753955006
 C         -1.1840262422       -0.7421251087       -0.5814939350
 C         -2.2253059331        0.2819876379       -0.3716316536
 C         -2.5642854899        0.6274277829        0.8840705531
 C         -3.5511109359        1.6515559062        1.4070520118
 C         -4.5612218517        2.3065759522        0.4685781205
 C         -5.6491488646        1.3650517139       -0.0509223669
 H         -6.3269177392        1.1341853236        0.7748541092
 H         -6.2246207285        1.8928833318       -0.8142229738
 C         -5.1613093360        0.0365311503       -0.6245422806
 H         -4.6354990250       -0.5261247277        0.1496299015
 H         -6.0415330127       -0.5487631225       -0.9042402708
 C         -4.2651532694        0.1438036826       -1.8563276432
 H         -4.0931684109       -0.8695239972       -2.2290664494
 H         -4.7819685862        0.7041510474       -2.6378165283
 C         -2.8929723185        0.7941179562       -1.6152129283
 H         -2.9763501421        1.8760775609       -1.6001851345
 H         -2.2346022439        0.5225741012       -2.4450944194
 H         -5.0559630309        3.0942011055        1.0434885832
 H         -4.0497058142        2.7941243546       -0.3559162053
 H         -2.9467814115        2.4359148480        1.8767667682
 H         -4.0903361002        1.1580792661        2.2222866195
 O         -1.9608783663        0.0643421674        1.9749628622
 C         -1.0761278305       -0.9918830852        1.8549597814
 O         -0.6923019292       -1.4707760974        2.9424870191
 O         -0.7786647363       -1.0076090147       -1.7420143913
 C          0.2391378682       -2.5773464331        0.4458865434
 C          1.5157900967       -2.1602566598       -0.2406775110
 C          2.0763195314       -2.8523338930       -1.3062533119
 C          3.2644742597       -2.4225790138       -1.8712147030
 C          3.9168322945       -1.3043110928       -1.3867101354
 C          3.3687629702       -0.6114402189       -0.3122960952
 C          2.1768285750       -1.0400053437        0.2485068082
 H          1.7615250422       -0.5027617935        1.0895809719
 N          4.0211579412        0.5092364643        0.2214804480
 S          3.1653260376        1.7522447958        0.9190189553
 O          4.0940545935        2.8644813270        0.9124111044
 O          2.6706315126        1.3668667766        2.2174987910
 C          1.8093094871        2.1396387259       -0.1729432826
 C          2.0136760929        2.1442265419       -1.5381890938
 C          0.9832321530        2.5520925219       -2.3687288250
 C         -0.2208345025        2.9666663467       -1.8235041282
 C         -0.4124139898        2.9539291252       -0.4513663905
 C          0.6089039647        2.5301648324        0.3829369030
 H          0.4966980985        2.4907366933        1.4557680153
 H         -1.3489514655        3.2747880460       -0.0248186495
 H         -1.0140890154        3.3008036376       -2.4730163171
 H          1.1242385070        2.5507171110       -3.4373723525
 H          2.9639090593        1.8333970890       -1.9402033958
 H          4.8273232427        0.8336725433       -0.2912799217
 H          4.8446540448       -0.9714595160       -1.8259469638
 H          3.6874065609       -2.9657699144       -2.7024078257
 H          1.5828481958       -3.7265512820       -1.6968791736
 H          0.4958327941       -2.8716242111        1.4747295187
 C         -0.4684877625       -3.7335397994       -0.2308175405
 C         -0.0652400013       -5.1450151600        0.0687453971
 C         -1.3648175462       -4.6102565139        0.5890202540
 H         -2.2844059058       -4.9653102680        0.1485457526
 H         -1.4441292263       -4.3888414638        1.6439121249
 H         -0.0956013025       -5.8718953477       -0.7287961766
 H          0.7377837457       -5.2962761966        0.7742768180
 H         -0.7906754915       -3.4933886857       -1.2374058330
