  62
        -98.93487827
 C          2.2698310032        0.9327588478       -0.1597984279
 C          3.5795608050        1.2523683010        0.2662697929
 C          4.6659059430        0.4098067035       -0.2627385057
 C          4.3616636215       -0.5895995287       -1.1089809669
 C          5.3037276325       -1.5909993041       -1.7183651682
 C          5.3649855487       -2.8690710496       -0.8646467926
 C          6.3924183742       -2.8395717686        0.2663457602
 H          6.2403001369       -3.7397316510        0.8663186167
 H          7.3962044314       -2.8956016574       -0.1599169559
 C          6.3188103423       -1.6175155320        1.1855353175
 H          6.8100158147       -1.8759073648        2.1256539633
 H          5.2756024623       -1.3944007169        1.4167920731
 C          7.0009415065       -0.3749952499        0.5938751295
 H          7.6992362086        0.0364673900        1.3255427878
 H          7.5968034098       -0.6730095525       -0.2685132290
 C          6.0534627481        0.7669037416        0.1967335873
 H          5.8976389210        1.4263349427        1.0562794157
 H          6.5315626032        1.3741364381       -0.5789388421
 H          5.6017975623       -3.7136310490       -1.5149450105
 H          4.3672768750       -3.0440031683       -0.4533437289
 H          4.8935472732       -1.8464137741       -2.6976276848
 H          6.2910437834       -1.1594943802       -1.8530626540
 O          3.0841636609       -0.8620970184       -1.4963360033
 C          2.0093466079       -0.1232072123       -1.0321115723
 O          0.9023237492       -0.4989041179       -1.4645061965
 H         -1.5948092786        1.2923826387       -0.0735072858
 C         -1.1887681840        0.7386708340        0.7550403817
 C          0.1465101727        0.8641818395        1.1027584254
 C          0.6296506856        0.1281581534        2.1826131197
 C         -0.1990705697       -0.7255309626        2.8826749426
 C         -1.5254283182       -0.8694229763        2.5142909347
 C         -2.0211283301       -0.1326219130        1.4458380780
 N         -3.3810844564       -0.2317507638        1.0902620268
 S         -3.8241925444       -0.3844649813       -0.5332385945
 O         -3.2784136822       -1.6031210385       -1.0903938429
 O         -3.5269900202        0.8401229027       -1.2293535011
 C         -5.5905182914       -0.5458159754       -0.3372420406
 C         -6.1729985436       -1.7979240660       -0.3845941977
 C         -7.5427488942       -1.9082900789       -0.2023404471
 C         -8.3022284867       -0.7709241745        0.0261846854
 C         -7.7036492790        0.4796051227        0.0696741929
 C         -6.3350628955        0.5965758964       -0.1130160724
 H         -5.8273804119        1.5466984409       -0.0960481502
 H         -8.2977896824        1.3619979964        0.2445464338
 H         -9.3677335387       -0.8592587215        0.1681521244
 H         -8.0110234016       -2.8787151081       -0.2394710804
 H         -5.5440423505       -2.6530114318       -0.5741657648
 H         -3.8493606980       -0.9566277002        1.6200253888
 H         -2.1718654402       -1.5466402189        3.0523468173
 H          0.1902511092       -1.2919244574        3.7154631798
 H          1.6703401479        0.2323240983        2.4590225397
 C          1.1062123023        1.7589529134        0.3586930396
 H          1.5471777499        2.4650562251        1.0779887392
 C          0.4664110314        2.5461804690       -0.7640954215
 C         -0.2728991110        3.8141887339       -0.4623009030
 C          1.0549000020        3.8674602510       -1.1547002192
 H          1.0828323284        4.1290167481       -2.2018772125
 H          1.9116444317        4.2126601499       -0.5944852728
 H         -0.3195512928        4.1293462198        0.5691227226
 H         -1.1620161185        4.0363321689       -1.0328542612
 H          0.0883089391        1.9127712466       -1.5598636586
 O          3.8310008621        2.1955228749        1.0643661604
