  62
        -98.94341663
 C         -2.2872005393       -0.6204622864        0.0659129655
 C         -3.1694747350       -0.1784443828        1.0887546929
 C         -4.0869684318        0.9125370690        0.7401572089
 C         -4.0372994728        1.4387802191       -0.4967268160
 C         -4.9438406788        2.5195029708       -1.0084704915
 C         -6.1939160630        1.9278618919       -1.6746895665
 C         -6.8975813098        0.8635756459       -0.8326274193
 H         -7.7811919207        0.5416663465       -1.3880215950
 H         -6.2433792877       -0.0062514626       -0.7383597548
 C         -7.3168339770        1.3356802125        0.5666137781
 H         -7.3255412078        2.4256164440        0.6028155509
 H         -8.3370214297        0.9969474203        0.7589959846
 C         -6.4470241385        0.7979602487        1.7045046647
 H         -6.9551859556        1.0084752678        2.6492799132
 H         -6.3583409809       -0.2877457673        1.6159891556
 C         -5.0355818171        1.3904835573        1.8032606911
 H         -4.6052336846        1.0674981116        2.7555805233
 H         -5.0937508715        2.4807957538        1.8046740886
 H         -6.8881861544        2.7421758760       -1.8898267544
 H         -5.8986058898        1.4735418714       -2.6233549228
 H         -4.3951099187        3.1090090169       -1.7449026158
 H         -5.2314704574        3.1656065745       -0.1813075127
 O         -3.1718679147        1.0041284152       -1.4451370106
 C         -2.2841065211       -0.0336186764       -1.1993116443
 O         -1.5705987626       -0.3108553789       -2.1858300176
 O         -3.1901535220       -0.6826388475        2.2429021233
 C         -1.3578534821       -1.7676753533        0.4264682020
 C          0.0393628524       -1.2880160019        0.7426982755
 C          0.5893166451       -1.4831590727        2.0042980411
 C          1.8787891197       -1.0653145448        2.2833495397
 C          2.6434754942       -0.4412304179        1.3142161686
 C          2.1025156973       -0.2388834457        0.0512093343
 C          0.8122557426       -0.6666718755       -0.2279342348
 H          0.3958759963       -0.5032904593       -1.2110249129
 N          2.8593315481        0.4179908946       -0.9351835992
 S          4.4098272059       -0.1429015316       -1.2499962228
 O          4.7007090667        0.2765039009       -2.6035382394
 O          4.5282368172       -1.5566106755       -0.9760769806
 C          5.4351605453        0.7827806321       -0.1259580373
 C          6.2806992280        0.1197657445        0.7418475405
 C          7.0774330070        0.8625098710        1.5994522398
 C          7.0153638493        2.2472925278        1.5735429099
 C          6.1626924407        2.8980190840        0.6940233068
 C          5.3647381341        2.1615427403       -0.1667572514
 H          4.6915912253        2.6277141458       -0.8669657544
 H          6.1168296223        3.9750531531        0.6766600069
 H          7.6351160694        2.8232816304        2.2424979703
 H          7.7412990356        0.3586405701        2.2834264119
 H          6.2908622446       -0.9584813843        0.7302834671
 H          2.3504105526        0.5610365578       -1.7960253583
 H          3.6474841271       -0.1114767224        1.5259522882
 H          2.2926794290       -1.2245406858        3.2672841868
 H         -0.0056750715       -1.9577838824        2.7708763271
 H         -1.7780543345       -2.1928389199        1.3479098051
 C         -1.3175017271       -2.8589563175       -0.6264944197
 C         -0.8899677972       -4.2382671372       -0.2278025178
 C         -2.3227896916       -3.9682055725       -0.5748132858
 H         -2.7127062167       -4.3532397996       -1.5051114538
 H         -3.0462848526       -3.9496823884        0.2272846935
 H         -0.2902157080       -4.8106113604       -0.9188545061
 H         -0.6427488224       -4.4045572732        0.8096835375
 H         -1.0208049437       -2.5036937598       -1.6049784552
