  62
        -98.93236615
 C          2.0675492595        0.6450043695        0.7897005013
 C          2.8553710593       -0.5147269808        1.0035343104
 C          4.2765060294       -0.4269785807        0.6380280207
 C          4.7493599596        0.7281731797        0.1364449718
 C          6.1516418297        0.9623616900       -0.3492567277
 C          6.3436240399        0.3227596512       -1.7390825482
 C          7.3412647298       -0.8351934489       -1.7664369590
 H          7.2357173599       -1.3355509781       -2.7313846795
 H          8.3548028498       -0.4320689791       -1.7132948985
 C          7.1902843794       -1.8713976099       -0.6485464500
 H          7.7729884794       -2.7463117697       -0.9446378706
 H          7.6442634293       -1.4917851308        0.2680669104
 C          5.7558491493       -2.3178772200       -0.3367372606
 H          5.7704093191       -3.3908776602       -0.1344409916
 H          5.1082795995       -2.1675358091       -1.2008582806
 C          5.1271735592       -1.6400454310        0.8950301598
 H          5.9126118091       -1.3889486917        1.6136342502
 H          4.4546229890       -2.3533733513        1.3808929391
 H          6.6822228202        1.0820637217       -2.4455649675
 H          5.3709554299       -0.0249147984       -2.0932869587
 H          6.2999277199        2.0410539100       -0.4034527967
 H          6.8607534896        0.5484327893        0.3642685421
 O          3.9659542098        1.8180190700       -0.0584902973
 C          2.6106061797        1.8136104799        0.2536306324
 O          2.0402718799        2.8904052102        0.0056636432
 O          2.3869611991       -1.5786487912        1.4934262394
 C          0.6077064294        0.5581166793        1.1935268009
 C         -0.2756619104        0.1389041604        0.0455100204
 C         -0.1436168901        0.7021371615       -1.2203724191
 C         -0.9758101300        0.3115669026       -2.2535781396
 C         -1.9715911701       -0.6260255975       -2.0396633206
 C         -2.1170995905       -1.1883141686       -0.7778860211
 C         -1.2611901006       -0.8161480096        0.2500373994
 H         -1.3807635708       -1.2764390104        1.2188437489
 N         -3.1365310506       -2.1252748587       -0.5076084822
 S         -4.3277969808       -1.6462569295        0.5702061880
 O         -3.7260307010       -1.3037002307        1.8316493885
 O         -5.2948848409       -2.7195589894        0.5789317569
 C         -5.0410506704       -0.1965698187       -0.1882107008
 C         -6.1814017903       -0.3316013779       -0.9559548112
 C         -6.6916473000        0.7838960027       -1.6003888503
 C         -6.0492353399        2.0066753325       -1.4762230091
 C         -4.9035520000        2.1251559317       -0.7042903187
 C         -4.3914164603        1.0143237611       -0.0526580796
 H         -3.5071023304        1.0737584704        0.5600908806
 H         -4.4028001599        3.0750861815       -0.6060043478
 H         -6.4438017397        2.8738314730       -1.9818388584
 H         -7.5847006199        0.6962680134       -2.1979878405
 H         -6.6493518404       -1.3006493478       -1.0213871221
 H         -3.5720155605       -2.5010125979       -1.3390262026
 H         -2.6282449100       -0.9226443667       -2.8436922810
 H         -0.8569377697        0.7524499034       -3.2315783292
 H          0.6115184500        1.4564286316       -1.3812563683
 H          0.5721582092       -0.2516417613        1.9401054902
 C          0.0987482294        1.8235497488        1.8738215419
 C         -0.9456234003        2.7115299595        1.2732539425
 C         -1.2841860207        1.8552066685        2.4548573917
 H         -1.4281045208        2.3311490576        3.4133035521
 H         -1.9120839708        0.9880329387        2.3039805208
 H         -0.8386037102        3.7756519493        1.4171421235
 H         -1.3449215102        2.4428357804        0.3076597622
 H          0.8773675794        2.3161904282        2.4468478725
