  62
        -98.94053869
 C         -2.4807892149       -1.1994267319        0.0368219798
 C         -2.4550541654        0.0042451429       -0.7077062040
 C         -3.7647295208        0.6122918360       -0.9757841414
 C         -4.8862321348        0.0047434028       -0.5472992580
 C         -6.2941727349        0.4901496703       -0.7630176046
 C         -6.7600986693        1.5297152823        0.2656777970
 C         -6.1354585881        2.9176399223        0.1174390745
 H         -6.2545448022        3.2605492557       -0.9107177384
 H         -6.7060120713        3.5954119396        0.7554304582
 C         -4.6553616611        2.9923893634        0.5182258537
 H         -4.4917932434        3.8693755795        1.1484549252
 H         -4.3940223882        2.1161509617        1.1159867073
 C         -3.6839429398        3.0934150819       -0.6579974452
 H         -3.8445585209        4.0354683589       -1.1870753548
 H         -2.6645175851        3.0978891873       -0.2628044354
 C         -3.7925459482        1.9421502275       -1.6664567299
 H         -4.6997699768        2.0456525523       -2.2613921940
 H         -2.9276637058        1.9875507415       -2.3331381000
 H         -6.5575832543        1.1441961672        1.2674937712
 H         -7.8427966560        1.6290593796        0.1601706767
 H         -6.3894174460        0.9021182313       -1.7679261724
 H         -6.9403203319       -0.3865708775       -0.6831645215
 O         -4.8676090385       -1.1687930023        0.1397793891
 C         -3.6708296959       -1.7853180325        0.4672996658
 O         -3.7969237284       -2.8323969162        1.1342986730
 H          1.5081135719       -1.3999223636       -0.0379211995
 C          1.0864502175       -0.8220873406        0.7667154820
 C         -0.2515669398       -0.9506841138        1.1041697032
 C         -0.7491220812       -0.1906264520        2.1599230920
 C          0.0650035325        0.6953517567        2.8373917356
 C          1.3935638399        0.8413028427        2.4788402601
 C          1.9067581817        0.0721201714        1.4416528515
 N          3.2678013001        0.1631329533        1.0999843977
 S          3.7463686638        0.0180352616       -0.5125107767
 O          3.0207026289        0.9503865069       -1.3454039798
 O          3.6866192700       -1.3695992157       -0.8962826939
 C          5.4509950761        0.5239985679       -0.3667889765
 C          5.8012545403        1.8260344013       -0.6701740862
 C          7.1240221922        2.2154000573       -0.5288030400
 C          8.0685741262        1.3018550566       -0.0857655832
 C          7.7023128383       -0.0019861199        0.2139147528
 C          6.3818446308       -0.3980240894        0.0730689684
 H          6.0525176723       -1.4019120215        0.2842131207
 H          8.4401735667       -0.7100884461        0.5550406409
 H          9.0971913139        1.6072879683        0.0233936430
 H          7.4121464587        3.2271036854       -0.7651040079
 H          5.0345456456        2.4985677289       -1.0204935620
 H          3.7183124875        0.9601595124        1.5297461666
 H          2.0275605673        1.5419752326        3.0008699189
 H         -0.3390781884        1.2851555348        3.6466505626
 H         -1.7904927188       -0.2979659025        2.4337101470
 C         -1.1800972031       -1.8990677092        0.3849474833
 H         -1.4452228789       -2.7116586826        1.0780990791
 C         -0.5690477681       -2.5055530201       -0.8613033348
 C          0.2712040809       -3.7422572595       -0.7661781452
 C         -1.0978674770       -3.8109754467       -1.3714476325
 H         -1.1865004167       -3.9497283065       -2.4385012253
 H         -1.8871933184       -4.2797104421       -0.8015739797
 H          1.1308845276       -3.8294296373       -1.4139355121
 H          0.4135170480       -4.1736563231        0.2132550014
 H         -0.2915457819       -1.7566038387       -1.5959105307
 O         -1.3978857327        0.5451114833       -1.1266618649
