  62
        -98.94357836
 C         -1.8231447007       -0.8341229244        0.8153193603
 C         -2.0605120874       -0.4273918156       -0.5198384388
 C         -3.4684210209       -0.4226322993       -0.9433153715
 C         -4.4200739197       -0.8148073334       -0.0766553664
 C         -5.8941900644       -0.8017368160       -0.3583103581
 C         -6.5275473355        0.5300299897        0.0683924801
 C         -5.7773739542        1.7614801021       -0.4395846757
 H         -6.3310195597        2.6407933884       -0.1030677068
 H         -4.7936626027        1.8011127455        0.0340340106
 C         -5.6064808693        1.8171974953       -1.9640892110
 H         -6.3172071309        1.1414441094       -2.4412312469
 H         -5.8409933815        2.8276828574       -2.3054524907
 C         -4.1936796784        1.4971582056       -2.4561946179
 H         -4.1302439143        1.7771888043       -3.5110595378
 H         -3.4683291417        2.1071452027       -1.9115750426
 C         -3.7656254811        0.0283430088       -2.3456440045
 H         -2.8301770444       -0.0872035524       -2.9005768805
 H         -4.5211222347       -0.6113475397       -2.8061273210
 H         -7.5573793083        0.5543964564       -0.2925464689
 H         -6.5493483090        0.5688628115        1.1600538156
 H         -6.3598015334       -1.6120318463        0.2051848208
 H         -6.0578735023       -0.9700894968       -1.4208210132
 O         -4.1484803692       -1.2246504507        1.1893770045
 C         -2.8497403316       -1.2294427226        1.6717280112
 O         -2.7413302983       -1.5978388157        2.8593766359
 O         -1.1480332251       -0.0844587991       -1.3150737156
 C         -0.4046661877       -0.8461428538        1.3547359708
 C          0.2128361270        0.5248471166        1.2224605995
 C         -0.5225967689        1.6392987260        1.6189162975
 C          0.0046576013        2.9104261224        1.5056238154
 C          1.2823048340        3.0980152615        1.0075769025
 C          2.0299868939        1.9930846155        0.6209134336
 C          1.4940142236        0.7165899798        0.7310879187
 H          2.0905933846       -0.1277184177        0.4306993335
 N          3.3152142060        2.1530182326        0.0882371940
 S          4.5140322563        1.0252230402        0.3636425538
 O          4.4403040522        0.4799051581        1.6991895488
 O          5.7418136073        1.7173468135        0.0327030797
 C          4.2316973365       -0.2561438047       -0.8399827513
 C          4.5266133006       -1.5614903311       -0.4990841276
 C          4.3424173792       -2.5601841736       -1.4423748790
 C          3.8695227313       -2.2371233986       -2.7047254328
 C          3.5823511961       -0.9208616887       -3.0325280377
 C          3.7678766993        0.0828200397       -2.0953358988
 H          3.5471347186        1.1134317406       -2.3174653589
 H          3.2105081875       -0.6736948431       -4.0138818046
 H          3.7218905964       -3.0159455226       -3.4362679290
 H          4.5654690160       -3.5846718828       -1.1892113711
 H          4.8813240641       -1.7687462325        0.4982684045
 H          3.6684179542        3.0980540268        0.0774100943
 H          1.6948344233        4.0912250984        0.9158330290
 H         -0.5812016444        3.7646296009        1.8108675060
 H         -1.5197841305        1.4933244567        2.0126670000
 H         -0.4857763696       -1.0800265875        2.4268088830
 C          0.3967202502       -1.9387541119        0.6774739057
 C          1.5296179046       -2.6045953452        1.3969880353
 C          0.2500172805       -3.3483627433        1.1628283833
 H          0.2427992503       -4.1461621439        0.4357253015
 H         -0.4087603449       -3.5163484886        2.0026721368
 H          2.4002050165       -2.8920533163        0.8272150669
 H          1.7521713684       -2.2707848008        2.3995224046
 H          0.4902527463       -1.7836428872       -0.3914847666
