  62
        -98.94515677
 C         -2.5208534702       -0.3241321224        0.0394594229
 C         -2.1777762600       -1.3209270465       -0.9036056052
 C         -1.5257030622       -2.5214346586       -0.3677673093
 C         -1.3081457816       -2.6140737760        0.9568931292
 C         -0.6599553439       -3.7841068715        1.6394123182
 C          0.8536364684       -3.5920300438        1.7959365776
 C          1.5683802016       -3.1805339486        0.5086337046
 H          1.2689347972       -2.1634647120        0.2444293021
 H          2.6376511032       -3.1429505221        0.7321974960
 C          1.3298139905       -4.1104470082       -0.6885821158
 H          0.9758832600       -5.0822635980       -0.3410670618
 H          2.2831778294       -4.2719039798       -1.1959784960
 C          0.3594088358       -3.5571276701       -1.7344829424
 H          0.6357216551       -2.5255399740       -1.9723573613
 H          0.4699408264       -4.1468679532       -2.6489542976
 C         -1.1254085163       -3.5877531392       -1.3477540652
 H         -1.7108818967       -3.3965877401       -2.2521488460
 H         -1.3880445588       -4.5791965002       -0.9716106385
 H          1.2802664264       -4.5251628430        2.1700889045
 H          1.0287384548       -2.8101430402        2.5385036531
 H         -1.1055378409       -3.8863580069        2.6308350338
 H         -0.8642022122       -4.6862550149        1.0652215140
 O         -1.6557447674       -1.6388395402        1.8342399430
 C         -2.2184756786       -0.4508459195        1.3954326551
 O         -2.4263732607        0.3836917722        2.2972687478
 H         -0.5244738974        0.8366902000       -0.9975225451
 C         -0.7757418816        1.8034682120       -0.5832501819
 C         -2.0970198967        2.0821623756       -0.2529616686
 C         -2.3958504503        3.3430839416        0.2430426608
 C         -1.3915276481        4.2813531743        0.4249180341
 C         -0.0720209437        3.9780564943        0.1442194189
 C          0.2343030272        2.7192355011       -0.3599150233
 N          1.5877177173        2.3413372600       -0.5792378003
 S          1.9486219441        0.7140683909       -0.3867289148
 O          1.7026740293       -0.0405483336       -1.6006145645
 O          1.3017309661        0.2575875630        0.8167506269
 C          3.7075551491        0.8206945629       -0.1145671850
 C          4.5899411007        0.2839987768       -1.0311155117
 C          5.9520266575        0.3968832631       -0.7972372728
 C          6.4051132655        1.0434717586        0.3421005642
 C          5.5064501023        1.5769710752        1.2546667208
 C          4.1445631853        1.4653025938        1.0270407757
 H          3.4075926953        1.8563370664        1.7094098600
 H          5.8620919078        2.0779133542        2.1406260620
 H          7.4649716437        1.1310172151        0.5219029246
 H          6.6520196843       -0.0193540859       -1.5037405543
 H          4.1902138234       -0.2124708735       -1.9007893878
 H          2.0055634948        2.7307732262       -1.4120013279
 H          0.7152456985        4.6943595168        0.3145273069
 H         -1.6413670502        5.2574547747        0.8121760721
 H         -3.4141463370        3.5900328968        0.4964573944
 C         -3.1110418335        0.9832690737       -0.4608398229
 H         -3.2447518298        0.8447514688       -1.5451245866
 C         -4.4577565769        1.2678535704        0.1667990158
 C         -5.4793613983        2.0738061782       -0.5772700526
 C         -5.6746098230        0.5993455419       -0.3970644382
 H         -6.4368434861        0.2566474097        0.2861504680
 H         -5.5333694214       -0.0454903526       -1.2523516920
 H         -5.2140476870        2.4317315510       -1.5605948440
 H         -6.1134678004        2.7446187190       -0.0177049744
 H         -4.3991850143        1.3767367518        1.2435269302
 O         -2.4153650040       -1.2120821407       -2.1395089379
