  62
        -98.93314795
 C         -1.2432864206       -1.4903999697        0.2072671292
 C         -2.0270199202       -0.6418452500        1.0280632800
 C         -3.1314304502        0.0817946607        0.3775455608
 C         -3.3095803706       -0.0433716983       -0.9503358192
 C         -4.3558447207        0.5532805526       -1.8673736085
 C         -5.1624995303        1.7766460225       -1.4366557474
 C         -4.3457177999        3.0507451021       -1.2282669568
 H         -3.9399006201        3.3687663927       -2.1921133667
 H         -5.0252799396        3.8322913921       -0.8807322960
 C         -3.1805871896        2.9382481412       -0.2470091072
 H         -2.4152140099        2.2764683812       -0.6585983979
 H         -2.7304010793        3.9304918610       -0.1540074867
 C         -3.5522938393        2.4573921703        1.1549427326
 H         -2.6795049591        2.6045909096        1.7951482024
 H         -4.3651011490        3.0698779903        1.5493552733
 C         -3.9524333497        0.9742982903        1.2623504517
 H         -3.7631800094        0.6473620596        2.2885587214
 H         -5.0124094798        0.8318004608        1.0642029219
 H         -5.7430644001        1.5534391521       -0.5463395674
 H         -5.8781114905        1.9723674332       -2.2400792670
 H         -3.8331191910        0.7805673531       -2.8019479385
 H         -5.0564121410       -0.2578074771       -2.0960341588
 O         -2.5069353611       -0.8452211980       -1.7091815400
 C         -1.4654482111       -1.5873667787       -1.1658334608
 O         -0.8320712715       -2.2519680183       -2.0065996915
 H          0.6903265595       -0.0782040797       -0.5105530104
 C          1.4620164693       -0.8382420999       -0.4863704612
 C          1.2058653992       -2.0458996703        0.1502216581
 C          2.2172632589       -3.0001433205        0.1640155371
 C          3.4414717588       -2.7472621105       -0.4312249931
 C          3.6879255089       -1.5411686801       -1.0619888424
 C          2.6793411892       -0.5909199598       -1.1005630414
 N          2.9339952593        0.6609707205       -1.7239008106
 S          3.6491011899        1.7641310696       -0.6825070501
 O          3.6968681201        3.0211742401       -1.3939497092
 O          4.9092420299        1.2209669190       -0.2465797908
 C          2.5091164204        1.8695411890        0.6841233003
 C          2.6122048405        0.9554890383        1.7138862297
 C          1.6352366208        0.9429178179        2.6964467500
 C          0.5742159110        1.8324961882        2.6302084309
 C          0.4901518209        2.7491921289        1.5934779415
 C          1.4607580006        2.7643389894        0.6050210613
 H          1.4269502605        3.4561754599       -0.2220328083
 H         -0.3348297489        3.4422722792        1.5443235823
 H         -0.1981569488        1.7963027879        3.3820282811
 H          1.6920430108        0.2290132773        3.5022833095
 H          3.4485429503        0.2751488981        1.7266500090
 H          2.0986955893        1.0808029110       -2.1086551401
 H          4.6389625089       -1.3188366700       -1.5171072125
 H          4.2139937086       -3.5003538507       -0.4028298638
 H          2.0497877588       -3.9506420908        0.6431647165
 C         -0.1060072606       -2.2369576004        0.8730868183
 H         -0.0033462402       -1.7351047411        1.8513534386
 C         -0.4105614409       -3.7015927505        1.1718390074
 C         -1.7825715811       -4.2780777400        0.9936070175
 C         -0.6740496115       -4.6864877497        0.0732432368
 H         -0.2700332718       -5.6840554599        0.1641861460
 H         -0.6873464217       -4.3042990890       -0.9356313429
 H         -2.1370358411       -4.9875191805        1.7266252571
 H         -2.5560570411       -3.6338841196        0.6007263181
 H          0.1409461292       -4.0721555713        2.0298076470
 O         -1.8122352998       -0.4938147709        2.2591509300
