  62
        -98.94343204
 C         -1.9557321045       -0.8599536458        0.0425977560
 C         -2.2388845082        0.1086857653        1.0329367033
 C         -2.5182438716        1.4650895490        0.5463551607
 C         -2.4504337107        1.7157123021       -0.7740778740
 C         -2.7504879285        3.0412795879       -1.4110337464
 C         -4.2310080718        3.1501028296       -1.8025839183
 C         -5.1959002259        2.7599273890       -0.6830398144
 H         -6.2097491956        2.9025655822       -1.0628562305
 H         -5.0787537104        1.6954299850       -0.4677057758
 C         -5.0185107965        3.5606363857        0.6144709079
 H         -6.0030828616        3.8611534758        0.9786398996
 H         -4.4544036791        4.4719710754        0.4134034717
 C         -4.3418374763        2.7879953707        1.7482116910
 H         -4.4604157785        3.3625967983        2.6706691813
 H         -4.8472411567        1.8296934890        1.8919867173
 C         -2.8422834121        2.5174071065        1.5694002909
 H         -2.3220895321        3.4498176770        1.3387453718
 H         -2.4548349553        2.1378595002        2.5199160161
 H         -4.4115192827        2.4919305110       -2.6554304897
 H         -4.4297381853        4.1764948122       -2.1160884436
 H         -2.4852653017        3.8374294360       -0.7179383269
 H         -2.1356669629        3.1354372209       -2.3077475473
 O         -2.1457108175        0.7662941836       -1.6948572864
 C         -1.8870324105       -0.5412294774       -1.3134303743
 O         -1.6197929954       -1.3089097307       -2.2579344087
 H          0.5211751246       -0.7071115399        0.3236030828
 C          0.7517952171       -1.7220233452        0.0327709317
 C         -0.2526594553       -2.6811926706        0.0341389642
 C          0.0732497650       -3.9816499089       -0.3309736841
 C          1.3694668731       -4.3023134469       -0.6959105746
 C          2.3625620191       -3.3413293236       -0.7071232286
 C          2.0455600990       -2.0345089114       -0.3489197075
 N          3.0216873419       -1.0270436675       -0.4069222193
 S          2.8190188626        0.4249050153        0.4148315313
 O          2.5775035338        0.1847337987        1.8213416303
 O          1.8405145467        1.2263027259       -0.2783779349
 C          4.4422058862        1.1262640840        0.1864101542
 C          5.3617694645        1.0745605872        1.2166552356
 C          6.6282786623        1.5998230473        1.0120094553
 C          6.9526622489        2.1621120790       -0.2132898768
 C          6.0187456606        2.2075327408       -1.2380578824
 C          4.7506500447        1.6853048744       -1.0395702707
 H          3.9886404801        1.7051903391       -1.8015009480
 H          6.2732292588        2.6474109616       -2.1888053124
 H          7.9385461178        2.5700969899       -0.3703871069
 H          7.3549760578        1.5688489667        1.8076488091
 H          5.0608434270        0.6347106798        2.1538147137
 H          3.9687750087       -1.3745178988       -0.3560017343
 H          3.3705171361       -3.5913581935       -0.9999665814
 H          1.6090666128       -5.3167773955       -0.9763339368
 H         -0.6890070659       -4.7436161096       -0.3310812992
 C         -1.6420059991       -2.2802149052        0.4693601894
 H         -1.6596070916       -2.2651384038        1.5707477919
 C         -2.7167320614       -3.2294826499       -0.0225572189
 C         -3.1191345237       -4.4187214248        0.7960818311
 C         -4.0410426657       -3.2436894066        0.6787033954
 H         -4.9380746537       -3.3439226380        0.0863831442
 H         -4.1523738267       -2.5921711422        1.5335064899
 H         -3.3871613321       -5.3300859850        0.2831190206
 H         -2.6153140495       -4.5713310199        1.7386826121
 H         -2.7206088297       -3.3225066669       -1.1028623738
 O         -2.2581847439       -0.1512549531        2.2686668214
