  62
        -98.93410060
 C         -1.6525905697       -0.3436069679       -0.3051561589
 C         -2.7634238554       -1.1922109834       -0.0648010380
 C         -4.0925950770       -0.6094928899       -0.2889173017
 C         -4.1958624528        0.6700902199       -0.6890833290
 C         -5.4647265222        1.4117697142       -1.0174472658
 C         -6.4394965806        1.6453497202        0.1529653990
 C         -7.5342478592        0.5794939629        0.2872109532
 H         -8.4737982135        1.0724763498        0.5451597175
 H         -7.6854682658        0.1073974601       -0.6843496078
 C         -7.2900611042       -0.4988378563        1.3472917954
 H         -7.9984174036       -1.3104338048        1.1675048053
 H         -7.5088667770       -0.0846060863        2.3341824928
 C         -5.8760542173       -1.0777473583        1.3971691497
 H         -5.2016289399       -0.3587684310        1.8684990070
 H         -5.8902002004       -1.9570353475        2.0442173290
 C         -5.2885655579       -1.4606334886        0.0248960366
 H         -4.9389707368       -2.4947555310        0.0454827543
 H         -6.0415671505       -1.3671616466       -0.7562339763
 H         -6.9217989605        2.6077140888       -0.0257619108
 H         -5.8769540710        1.7346567690        1.0819774846
 H         -5.1422152210        2.3781117014       -1.4106481309
 H         -5.9827488167        0.8813248590       -1.8198055813
 O         -3.1060830052        1.4604276938       -0.8847357165
 C         -1.8130787402        0.9904014639       -0.6826027416
 O         -0.9341375387        1.8512137658       -0.8715964406
 H          2.0059739289        0.4752045097       -0.8025181730
 C          1.7149638924        0.6283239493        0.2224338303
 C          0.5786917876        0.0221606292        0.7323521630
 C          0.2067431942        0.2998376297        2.0457769996
 C          0.9468588251        1.1699565064        2.8213582676
 C          2.0897148457        1.7632904448        2.3131884720
 C          2.4695119869        1.4925165730        1.0050298764
 N          3.6239698187        2.0709360733        0.4604600468
 S          4.5671754656        1.2016580541       -0.6051692235
 O          5.8894690581        1.7750719509       -0.4646606952
 O          4.0110052163        1.2373824631       -1.9339880591
 C          4.5615493437       -0.4736182301        0.0128574374
 C          4.1893924259       -1.5069619288       -0.8221060843
 C          4.1808979165       -2.8015850126       -0.3272866942
 C          4.5405962808       -3.0387245601        0.9900490590
 C          4.9190041382       -1.9907814439        1.8152750840
 C          4.9322267338       -0.6954584332        1.3245306225
 H          5.2290337273        0.1380167643        1.9398511495
 H          5.2010115628       -2.1792731274        2.8385401160
 H          4.5268887094       -4.0463534983        1.3744557882
 H          3.8894561091       -3.6181024248       -0.9688891675
 H          3.9107314603       -1.2765908944       -1.8382226779
 H          4.1745994612        2.6239291471        1.0996990707
 H          2.6724716428        2.4417015270        2.9174623689
 H          0.6390064006        1.3835387261        3.8338347641
 H         -0.6829796586       -0.1678377928        2.4451538235
 C         -0.2691263708       -0.9253574253       -0.0763097751
 H         -0.4524492317       -1.8227946392        0.5381969446
 C          0.4256758981       -1.4049778578       -1.3413382380
 C         -0.3547343047       -1.9147428640       -2.5145052548
 C          0.3987886080       -0.6241898806       -2.6196147126
 H          1.2959149410       -0.5914197575       -3.2215980771
 H         -0.1571717873        0.3004578197       -2.6303820362
 H         -1.4326160239       -1.8713102559       -2.4567086559
 H          0.0202714047       -2.7761875744       -3.0461502839
 H          1.3494209517       -1.9287389269       -1.1139569197
 O         -2.6480174982       -2.3861503224        0.3191852631
