  62
        -98.94329465
 C          1.2255537127        0.6717738700        0.5778148509
 C          1.9375243662        0.4835045627       -0.6323610853
 C          2.9383395001       -0.5953037303       -0.6239564619
 C          3.0511059136       -1.3877108074        0.4563772791
 C          4.0627951469       -2.4843913467        0.6168056959
 C          5.3480508185       -1.9620764526        1.2746171196
 C          5.8970848042       -0.6878831271        0.6325481600
 H          5.1912539200        0.1286525608        0.8009961762
 H          6.8184733869       -0.4299155395        1.1589504415
 C          6.1827740883       -0.8068123672       -0.8709987037
 H          7.1557376567       -0.3569203363       -1.0791447935
 H          6.2446311715       -1.8581998561       -1.1541161205
 C          5.1643410139       -0.1003818162       -1.7677963431
 H          5.5724050118       -0.0621220718       -2.7812405345
 H          5.0318949733        0.9303461462       -1.4293134080
 C          3.7822995400       -0.7604582520       -1.8563786895
 H          3.8929852147       -1.8171576392       -2.1090961000
 H          3.2289834836       -0.2718862540       -2.6640861484
 H          6.1027014931       -2.7493432419        1.2291460797
 H          5.1378371953       -1.7532065715        2.3262168452
 H          3.6291577428       -3.2619800073        1.2482845605
 H          4.2873879385       -2.9093920341       -0.3597022892
 O          2.2710357869       -1.2473327713        1.5587525937
 C          1.3433597337       -0.2224206152        1.6444291418
 O          0.6840510993       -0.2172894398        2.7042691833
 O          1.7604063966        1.1737838133       -1.6690271038
 C          0.1807563748        1.7639716842        0.7252866301
 C         -0.7747326434        1.7204147930       -0.4424426915
 C         -1.1592783241        2.8282387787       -1.1854311346
 C         -2.0722081707        2.6914833606       -2.2175350939
 C         -2.6379960873        1.4646893703       -2.5130239465
 C         -2.2563629523        0.3491556733       -1.7757328515
 C         -1.3291452945        0.4867165856       -0.7575756522
 H         -1.0116873686       -0.3902803153       -0.2139402818
 N         -2.8021060498       -0.9180797514       -2.0317745907
 S         -3.0587461048       -1.9688904811       -0.7583110367
 O         -1.8173021706       -2.5734231073       -0.3420029101
 O         -4.0679735142       -2.8833063289       -1.2498889443
 C         -3.7452793436       -0.9568419994        0.5417799761
 C         -3.0315925584       -0.7061484784        1.6955555028
 C         -3.5843433440        0.1257088998        2.6572066940
 C         -4.8341138625        0.6880031117        2.4514502407
 C         -5.5439561107        0.4183914682        1.2908760325
 C         -4.9954177297       -0.4089278125        0.3254401493
 H         -5.5207799628       -0.6501958313       -0.5842255752
 H         -6.5183822548        0.8524321814        1.1356658521
 H         -5.2564504793        1.3375184264        3.2017540766
 H         -3.0249635883        0.3310617384        3.5562830345
 H         -2.0575419944       -1.1507520809        1.8320176270
 H         -3.5568062921       -0.9347328398       -2.7014172513
 H         -3.3549763466        1.3642123383       -3.3131659096
 H         -2.3543858524        3.5576322306       -2.7965260081
 H         -0.7302789649        3.7936144656       -0.9735985398
 H         -0.3962735883        1.4756321108        1.6205020629
 C          0.7454075292        3.1487158260        1.0067684227
 C          2.1223467684        3.3241103976        1.5733406949
 C          1.8274706999        3.7626888967        0.1719963270
 H          1.7777686165        4.8227428659       -0.0305506222
 H          2.2166246733        3.1776797288       -0.6454914518
 H          2.2736230423        4.0779303420        2.3315733730
 H          2.7210677699        2.4355674484        1.7158945680
 H         -0.0143633809        3.8239872068        1.3878772417
