  62
        -98.94026908
 C         -2.0419834289       -1.1256692241       -0.4349247593
 C         -1.5539236637        0.0646682097       -1.0221294403
 C         -2.3225191518        1.2955394692       -0.7564753248
 C         -3.3968333295        1.2492500625        0.0479657682
 C         -4.3560459187        2.3519400962        0.4243504113
 C         -3.7810749120        3.7466188766        0.6961425685
 C         -2.4102336588        3.7579985629        1.3881308511
 H         -2.4573923065        4.4107142082        2.2621096606
 H         -2.1571018227        2.7571971904        1.7440744794
 C         -1.2862174887        4.2627200878        0.4809899060
 H         -1.6422820892        5.1345126157       -0.0733041674
 H         -0.4507114317        4.5865866232        1.1066952328
 C         -0.7366427297        3.2269035211       -0.4978911375
 H         -0.2091064069        2.4504136292        0.0626826990
 H          0.0007594973        3.7235127482       -1.1342666508
 C         -1.7864157621        2.5463954568       -1.3931213505
 H         -1.2899255784        2.2269657676       -2.3134036967
 H         -2.5856725245        3.2359939591       -1.6548432284
 H         -4.5083085431        4.2684814206        1.3208341638
 H         -3.7133453776        4.3032172604       -0.2374242218
 H         -5.1100613460        2.4249415644       -0.3655432799
 H         -4.8660132071        1.9875861048        1.3198452080
 O         -3.8086301201        0.0877622272        0.6331282369
 C         -3.1551869531       -1.1085928820        0.4090403900
 O         -3.6611981068       -2.0836651877        1.0025409483
 O         -0.5387182294        0.1256364141       -1.7645589226
 C         -1.3942761817       -2.4911562112       -0.6136716820
 C         -0.2995938252       -2.6873211584        0.4088327579
 C         -0.3519431315       -3.7460444126        1.3072263438
 C          0.6335098679       -3.9030426214        2.2654148237
 C          1.6701534227       -2.9934585233        2.3591750764
 C          1.7314186685       -1.9282152477        1.4657904206
 C          0.7653752275       -1.7995556886        0.4793838597
 H          0.8185508910       -0.9765815220       -0.2127779354
 N          2.7713887127       -0.9923650997        1.5513709739
 S          2.5047921007        0.6553969190        1.3403599206
 O          3.3218404650        1.2864897421        2.3591286340
 O          1.0985297657        0.9712480370        1.3705989397
 C          3.2464910053        0.9892402285       -0.2443092482
 C          2.4833461888        1.0896800123       -1.3887764064
 C          3.1225639276        1.3282430400       -2.5969607310
 C          4.5009533971        1.4599478390       -2.6424011052
 C          5.2538299345        1.3568569393       -1.4819023496
 C          4.6229984987        1.1191460622       -0.2727540955
 H          5.1668916913        1.0465978948        0.6544614215
 H          6.3264064259        1.4605797283       -1.5170671308
 H          4.9899462203        1.6447132948       -3.5860312627
 H          2.5311701314        1.4052637846       -3.4954823980
 H          1.4110927533        0.9777082879       -1.3415066904
 H          3.4035800411       -1.1497840724        2.3228205983
 H          2.4262958121       -3.0993331915        3.1227763279
 H          0.5837040176       -4.7296825389        2.9580308887
 H         -1.1825712580       -4.4352928293        1.2644333045
 H         -2.1851662045       -3.2221370314       -0.3941930316
 C         -0.8799094730       -2.7534935847       -2.0151647844
 C         -0.7352157276       -4.1705722468       -2.4789959998
 C         -1.8152616165       -3.3014278720       -3.0486754569
 H         -1.7190692765       -2.9528014172       -4.0657566352
 H         -2.8356257512       -3.4920664624       -2.7482223018
 H          0.1061591864       -4.4225719018       -3.1057939831
 H         -1.0247367534       -4.9542735361       -1.7952437015
 H         -0.1403327041       -2.0367541710       -2.3446847025
