  62
        -98.94509658
 C         -1.9082138296       -1.4898652406        0.0906640718
 C         -1.7161543101       -0.3865795411       -0.7751847090
 C         -2.8812280105        0.4896640983       -0.9581274495
 C         -4.0058885503        0.2635080083       -0.2553669693
 C         -5.2700194307        1.0768262978       -0.3189150997
 C         -5.2360623511        2.3462562484        0.5438843593
 C         -4.3719040916        3.4848219784       -0.0002440116
 H         -4.6453473318        3.6821241075       -1.0373258017
 H         -4.6208298619        4.3773674287        0.5772509178
 C         -2.8588589815        3.2427846291        0.0965347385
 H         -2.6628167511        2.4414323997        0.8129762390
 H         -2.3727370318        4.1438467895        0.4776332878
 C         -2.1908573015        2.8939062884       -1.2331499513
 H         -2.2851239919        3.7356193978       -1.9229389619
 H         -1.1264801014        2.7233322289       -1.0578838813
 C         -2.7570094010        1.6408097276       -1.9115658404
 H         -3.7256002312        1.8607867369       -2.3608433605
 H         -2.0658190810        1.3407469273       -2.7036351602
 H         -4.8969049009        2.0776101593        1.5469029995
 H         -6.2630562412        2.7091480881        0.6272004192
 H         -5.4843285109        1.3440355270       -1.3541150499
 H         -6.0725274204        0.4327075377        0.0466659008
 O         -4.1269248299       -0.7712329011        0.6182962115
 C         -3.0977116695       -1.6800840805        0.7964107420
 O         -3.3554745590       -2.5959403601        1.6033475527
 H          1.7815190406       -2.0921440196       -0.6412580281
 C          1.6174784005       -1.7647502290        0.3713113117
 C          0.3761688106       -1.8951369390        0.9734079619
 C          0.2133023206       -1.4301350881        2.2771738616
 C          1.2662419604       -0.8574949572        2.9628622411
 C          2.5031656703       -0.7219974472        2.3552323608
 C          2.6733223504       -1.1730580080        1.0532709712
 N          3.9146689302       -1.0365770280        0.3948686309
 S          3.9429154297       -0.0024125890       -0.9288127098
 O          3.1370208198       -0.5426669201       -1.9895777293
 O          5.3477768496        0.1827044314       -1.2257713601
 C          3.2672419592        1.5100481512       -0.2664897808
 C          4.1535395688        2.4477771420        0.2286863484
 C          3.6587599184        3.5707471522        0.8705797176
 C          2.2896723084        3.7227549118        1.0286261777
 C          1.4153094587        2.7697973611        0.5304031184
 C          1.9001388591        1.6511634008       -0.1313704808
 H          1.2358159794        0.9061192402       -0.5435180702
 H          0.3504421987        2.8845294407        0.6600024384
 H          1.8993596381        4.5873925620        1.5419439371
 H          4.3381655882        4.3153193928        1.2531036270
 H          5.2097523989        2.2802834323        0.0909561784
 H          4.6691766302       -0.7805515873        1.0179788507
 H          3.3290051002       -0.2708832265        2.8845442504
 H          1.1243525803       -0.5091709765        3.9745317108
 H         -0.7567791094       -1.5330098982        2.7447061317
 C         -0.8108357392       -2.5233542100        0.2854135424
 H         -1.2298878788       -3.2762899997        0.9684985530
 C         -0.4714302790       -3.1973174408       -1.0268104871
 C          0.1662440415       -4.5528367405       -1.0194908962
 C         -1.2600989886       -4.3974290314       -1.4525671062
 H         -1.4983836886       -4.5130801023       -2.4993256161
 H         -2.0377470384       -4.7438563013       -0.7870586358
 H          0.9106319915       -4.7755566008       -1.7689941761
 H          0.3576809518       -5.0089633398       -0.0598499459
 H         -0.1721304894       -2.4997530812       -1.8005525876
 O         -0.6364414603       -0.1425885411       -1.3741654093
