  62
        -98.94533274
 C         -1.9511868000       -0.3396467205        0.4880218310
 C         -1.6572582205        0.8440607996        1.2102016909
 C         -1.7928776117        2.1094225496        0.4763098410
 C         -2.1313276323        2.0777719794       -0.8251449888
 C         -2.2803633335        3.2861589393       -1.7032990187
 C         -0.9643794040        3.6289610702       -2.4136937193
 C          0.2418499563        3.7011762011       -1.4773354998
 H          0.4558594072        2.6964376412       -1.1038216499
 H          1.1033312559        3.9961093917       -2.0813809001
 C          0.0775624661        4.6789236909       -0.3050084797
 H          0.9983599658        5.2573809515       -0.2041891701
 H         -0.7256974644        5.3836190003       -0.5241764093
 C         -0.1808574528        4.0177116007        1.0497023704
 H         -0.0646689630        4.7797525807        1.8250998504
 H          0.5784140278        3.2531803212        1.2260830101
 C         -1.5653386323        3.3852064797        1.2394853410
 H         -1.6666474217        3.1217981296        2.2966686910
 H         -2.3378360929        4.1171417792        0.9931297113
 H         -1.0883831849        4.5840042302       -2.9285628492
 H         -0.7626253338        2.8591862904       -3.1626486794
 H         -2.6091374638        4.1296062490       -1.0984579486
 H         -3.0418671836        3.0703658288       -2.4550746184
 O         -2.3512724817        0.9239288892       -1.5013981388
 C         -2.2426726406       -0.3122279107       -0.8777207389
 O         -2.4450496402       -1.2757084408       -1.6400369288
 O         -1.2985324200        0.8443270098        2.4189179508
 C         -1.7949735788       -1.6673865205        1.2134615609
 C         -0.9035443385       -2.5602075598        0.3885829005
 C         -1.2667355578       -3.8029655300       -0.1095032994
 C         -0.3968752777       -4.5011966894       -0.9303965198
 C          0.8275853218       -3.9692156885       -1.2904407103
 C          1.2027002711       -2.7274207083       -0.7881669104
 C          0.3541854910       -2.0603320189        0.0759683800
 H          0.6447518305       -1.0996255087        0.4701688599
 N          2.4300075306       -2.1400390774       -1.1271040609
 S          2.5788331094       -0.4738749973       -1.2306652409
 O          1.3437542488        0.1721311018       -1.6062036904
 O          3.7012401188       -0.2758125065       -2.1245754114
 C          3.0710502297        0.0007465430        0.4133743189
 C          4.2939339502       -0.4415171062        0.8792393684
 C          4.6870512405       -0.0960364159        2.1619083882
 C          3.8544128403        0.6790319235        2.9558058886
 C          2.6319641598        1.1196647926        2.4732578191
 C          2.2377358195        0.7801410124        1.1889061193
 H          1.2885788891        1.1004226317        0.7844200297
 H          1.9731477197        1.7139000221        3.0869205294
 H          4.1573684406        0.9428159536        3.9567465385
 H          5.6380731109       -0.4339557253        2.5407987378
 H          4.9120583304       -1.0366591357        0.2281095681
 H          2.9465263906       -2.6135685770       -1.8532691511
 H          1.4835008419       -4.5005977781       -1.9632425806
 H         -0.6901921472       -5.4644276396       -1.3200726897
 H         -2.2393603374       -4.2098334907        0.1137453710
 H         -1.2536350185       -1.4071676201        2.1389921907
 C         -3.0964755181       -2.3223773114        1.6457334314
 C         -4.3128327986       -1.4963391623        1.9368272920
 C         -4.2955177584       -2.4131187322        0.7523081319
 H         -4.8951354678       -3.3108817026        0.7931955422
 H         -4.2191517791       -1.9842111721       -0.2340751381
 H         -4.9239324280       -1.7612126327        2.7865401322
 H         -4.2472912094       -0.4325934922        1.7585341720
 H         -2.9210466272       -3.1654807713        2.3071121313
