  62
        -98.94449540
 C         -2.6559124652       -1.2863259037        0.1171634052
 C         -2.5594520275       -0.2892640136       -0.8837449224
 C         -3.5261268302        0.8148327943       -0.7836893182
 C         -4.4328842448        0.8148615677        0.2098737205
 C         -5.4352317230        1.9032293951        0.4596940747
 C         -4.8778399625        2.9591355075        1.4245132537
 C         -3.4820806309        3.4610023115        1.0534708412
 H         -3.2057951629        4.2244462624        1.7839840315
 H         -2.7650998448        2.6431213893        1.1598613629
 C         -3.3727465128        4.0462280684       -0.3614396516
 H         -2.8017491666        4.9758019803       -0.3125086198
 H         -4.3658420798        4.2944887122       -0.7379220106
 C         -2.6610981754        3.1419696149       -1.3699318505
 H         -1.7008519708        2.8164415175       -0.9591876269
 H         -2.4465131814        3.7337059996       -2.2642309606
 C         -3.4423480991        1.9004977410       -1.8193402032
 H         -4.4396466811        2.1946382781       -2.1528101314
 H         -2.9097112919        1.4643754117       -2.6696609895
 H         -5.5721345748        3.8007359345        1.4537612353
 H         -4.8288670698        2.5229860088        2.4247900708
 H         -5.7044921610        2.3668316502       -0.4872015787
 H         -6.3264467320        1.4547974458        0.9017097825
 O         -4.5065845124       -0.1688320195        1.1417591612
 C         -3.6127996704       -1.2249039641        1.1337129629
 O         -3.7731268952       -2.0388057492        2.0646870131
 H          0.3875923720       -1.7254520891       -1.4759024166
 C          0.6092972737       -1.5700471664       -0.4321344189
 C         -0.3268224465       -1.9139676058        0.5299714644
 C         -0.0291617123       -1.6688566364        1.8677989303
 C          1.1773026438       -1.0996413566        2.2291448572
 C          2.1069146505       -0.7503899441        1.2644113735
 C          1.8109844318       -0.9733407619       -0.0729007062
 N          2.7400871989       -0.6026468185       -1.0610657513
 S          3.3890387000        0.9450177350       -0.9820107308
 O          2.5008085484        1.8679665882       -0.3140159315
 O          3.7581591018        1.2727501903       -2.3420400297
 C          4.8747357305        0.7228670365       -0.0237428196
 C          5.7895004527       -0.2194910513       -0.4515467722
 C          6.9533651778       -0.4021251365        0.2777727540
 C          7.1836695062        0.3583811783        1.4146312002
 C          6.2578739072        1.3036008600        1.8287035115
 C          5.0909621827        1.4904073311        1.1037876792
 H          4.3404314015        2.2099663725        1.3906662558
 H          6.4385703814        1.8947856551        2.7121261363
 H          8.0900384334        0.2139343843        1.9811429259
 H          7.6758301451       -1.1359022250       -0.0414151689
 H          5.5743109094       -0.7863349052       -1.3417943513
 H          2.4210727524       -0.8003427334       -1.9991836360
 H          3.0441029207       -0.2935210156        1.5374043103
 H          1.3958123034       -0.9203925291        3.2709915966
 H         -0.7663537592       -1.9174586811        2.6189707188
 C         -1.6868158382       -2.4583456719        0.1668470143
 H         -2.0296548146       -3.0957915796        0.9923856236
 C         -1.7052204544       -3.2691000281       -1.1118366034
 C         -1.0875610508       -4.6342220716       -1.1194555042
 C         -2.5767239232       -4.4846853429       -1.1925720830
 H         -3.0727709839       -4.7002800805       -2.1270936713
 H         -3.1609727624       -4.7392752377       -0.3203358438
 H         -0.6591403744       -4.9903162054       -0.1948233994
 H         -0.5592992257       -4.9573679346       -2.0033705955
 H         -1.6184632043       -2.6663950794       -2.0070407120
 O         -1.7203420826       -0.3101386546       -1.8233735047
