  62
        -98.93804871
 C          2.4710253196        1.1930567929       -0.0684477736
 C          3.1981597353        0.4816136645        0.9120306048
 C          4.0342728590       -0.6319097252        0.4304032731
 C          4.0568542675       -0.9077393982       -0.8854925964
 C          4.7940750704       -2.0231383019       -1.5738533538
 C          3.8855167810       -3.2529406818       -1.7411219747
 C          3.8766465730       -4.2139291122       -0.5527677268
 H          3.1008426136       -4.9592814047       -0.7426064959
 H          4.8325081500       -4.7399983541       -0.5093258345
 C          3.6135954259       -3.5678499929        0.8102045578
 H          2.8076550972       -2.8364539772        0.7217220382
 H          3.2659722988       -4.3484713511        1.4900102678
 C          4.8596112775       -2.9023554579        1.4137291884
 H          5.0009565102       -3.2605317618        2.4356104200
 H          5.7384700421       -3.2173985993        0.8516541362
 C          4.8149728372       -1.3684745651        1.4848469738
 H          5.8395736845       -0.9820306034        1.4945153246
 H          4.3582211874       -1.0618346484        2.4314146002
 H          2.8706550764       -2.8952976606       -1.9338895480
 H          4.2081279688       -3.8098348128       -2.6230081299
 H          5.7029394606       -2.2749482014       -1.0357001507
 H          5.0623818977       -1.6522817165       -2.5651607146
 O          3.3298389014       -0.2037476633       -1.7960161194
 C          2.5154804638        0.8507646419       -1.4199169800
 O          1.8994896046        1.3870783822       -2.3588709572
 O          3.1420926248        0.7559300975        2.1430211881
 C          1.5854993215        2.3477526157        0.3611472716
 C          0.1439717689        2.0607076939        0.0170278773
 C         -0.7010790064        2.9901201444       -0.5742687362
 C         -2.0183298069        2.6644695423       -0.8497093349
 C         -2.5218259831        1.4146515372       -0.5413328445
 C         -1.6899718003        0.4813537021        0.0640144515
 C         -0.3731848791        0.8121807763        0.3420540736
 H          0.2727020497        0.0838888239        0.8185592692
 N         -2.1919113678       -0.7953862984        0.3775846304
 S         -3.5881748075       -0.8766511031        1.3105115926
 O         -3.7102642555        0.2728194202        2.1771097199
 O         -3.5339158668       -2.1686393370        1.9592148491
 C         -4.9068900854       -0.8831358829        0.1148527378
 C         -4.9135829238       -1.8792062162       -0.8418629436
 C         -5.9383234942       -1.9038519733       -1.7742765420
 C         -6.9347034209       -0.9397746885       -1.7324006060
 C         -6.9155331182        0.0514777790       -0.7631984393
 C         -5.8925230456        0.0826644899        0.1718204403
 H         -5.8330590041        0.8365400628        0.9405239271
 H         -7.6912966755        0.7995252524       -0.7320933136
 H         -7.7309370411       -0.9617263119       -2.4595826598
 H         -5.9566050168       -2.6731722135       -2.5293679529
 H         -4.1232752973       -2.6113147836       -0.8368797232
 H         -1.4919681211       -1.4230860911        0.7464501566
 H         -3.5443593790        1.1555437302       -0.7620453418
 H         -2.6610743402        3.3951327141       -1.3163869557
 H         -0.3278237082        3.9694812588       -0.8241120181
 H          1.6679977959        2.3873016276        1.4581798200
 C          2.1005111605        3.6512797103       -0.2117787889
 C          1.8790544710        4.9394207146        0.5214580363
 C          3.2485490730        4.3340714479        0.4672237898
 H          4.0011731104        4.8086607823       -0.1442326198
 H          3.6412153862        3.8718505958        1.3613953582
 H          1.6934856009        5.8345687583       -0.0527086023
 H          1.3431949290        4.8960344303        1.4577024873
 H          2.0800894525        3.6654616191       -1.2955939621
