  62
        -98.93875306
 C          1.9544470852        1.5498132812       -0.0343906875
 C          1.7441413011        0.2666803663       -0.5930353989
 C          2.9211270017       -0.6196132223       -0.6362308643
 C          4.1042017501       -0.1710080201       -0.1827001726
 C          5.4358312362       -0.8795462979       -0.1819325360
 C          5.4529983810       -2.3507108213        0.2564759573
 C          4.4029671628       -2.7261295109        1.3121749418
 H          4.8966712749       -3.2520644806        2.1316321884
 H          3.9514293347       -1.8246713637        1.7300031276
 C          3.3059211836       -3.6398083224        0.7613141172
 H          2.8255741199       -4.1533236522        1.5977175068
 H          3.7720145959       -4.4034428433        0.1345987049
 C          2.2026788417       -2.9431924895       -0.0352746749
 H          1.5724881316       -3.7200303826       -0.4732905829
 H          1.5707755148       -2.3558243466        0.6364035043
 C          2.6785930714       -2.0068447161       -1.1574747843
 H          3.5551796397       -2.4070520252       -1.6613809250
 H          1.8661409320       -1.9144447332       -1.8830794421
 H          6.4514836978       -2.5517097623        0.6484680920
 H          5.3239907910       -2.9918158025       -0.6144849659
 H          5.8643708330       -0.7998124673       -1.1852195957
 H          6.0700177983       -0.2911733296        0.4855584769
 O          4.2605396815        1.0800411367        0.3377708341
 C          3.1983136102        1.9613068152        0.4383867212
 O          3.4838285228        3.0589564151        0.9597738639
 H         -1.8472583160        2.2773902081       -0.6998033926
 C         -1.6368416736        1.8237253645        0.2559556372
 C         -0.3561513638        1.8747986342        0.7812421827
 C         -0.1228137390        1.2821133044        2.0196560756
 C         -1.1395452080        0.6438967203        2.7029566283
 C         -2.4146194307        0.5821575747        2.1676040545
 C         -2.6591933127        1.1752695982        0.9375089324
 N         -3.9523196860        1.1131111206        0.3822114977
 S         -4.6386743484       -0.4061289182        0.2080518524
 O         -5.7047228119       -0.2275505851       -0.7523394011
 O         -5.0307491417       -0.9016963189        1.5034979884
 C         -3.3467064002       -1.4232817885       -0.4782764119
 C         -3.0701029857       -1.3035188962       -1.8253323202
 C         -2.0353146611       -2.0474480795       -2.3656121670
 C         -1.2934686379       -2.8876930506       -1.5514155616
 C         -1.5808193651       -2.9940042302       -0.2005751946
 C         -2.6158901183       -2.2534431911        0.3459131786
 H         -2.8717407294       -2.3101717080        1.3913500414
 H         -0.9979850269       -3.6458448404        0.4304834873
 H         -0.4844524598       -3.4618916827       -1.9746328952
 H         -1.8040049199       -1.9643125606       -3.4154529247
 H         -3.6747989571       -0.6446185490       -2.4281815237
 H         -4.0377125020        1.6255648222       -0.4843234065
 H         -3.2187460541        0.0796518356        2.6802281610
 H         -0.9393931897        0.1870820336        3.6606441354
 H          0.8756022013        1.3213065001        2.4350187303
 C          0.7971927134        2.5275502514        0.0605524626
 H          1.1551168428        3.3690486760        0.6711865619
 C          0.4458479030        3.0429051381       -1.3198180895
 C         -0.1878585988        4.3908974448       -1.4853973144
 C          1.2393003718        4.1781556641       -1.8902781593
 H          1.4812369391        4.1615941071       -2.9424252732
 H          2.0187474999        4.5977439893       -1.2709319039
 H         -0.9240820935        4.5254410143       -2.2638178039
 H         -0.3807437677        4.9662563210       -0.5925183060
 H          0.1527509545        2.2495059724       -1.9982663299
 O          0.6357106432       -0.1182356613       -1.0443354674
