  62
        -98.93699527
 C         -2.3310539399       -1.2676443209        0.1730593081
 C         -2.4137746701        0.0222697598       -0.4034673802
 C         -3.5082205402        0.8780811790        0.0850897209
 C         -4.3256054501        0.4178026176        1.0492167204
 C         -5.5312142402        1.1338552367        1.5883143014
 C         -6.7031584802        1.0110719678        0.5933412513
 C         -7.1413648705        2.3355667086       -0.0318920470
 H         -7.8103761205        2.0996483195       -0.8621573573
 H         -7.7160823006        2.9024044375        0.7034973038
 C         -6.0143290507        3.2392146594       -0.5414794559
 H         -5.5661157007        3.7758904384        0.2960423448
 H         -6.4765906008        3.9932842102       -1.1820948349
 C         -4.8981503006        2.5418928706       -1.3299539668
 H         -5.2616433505        1.6145011311       -1.7732092980
 H         -4.6060260508        3.1953294517       -2.1546442760
 C         -3.6226708105        2.2518149798       -0.5159220673
 H         -2.7563569506        2.3405459108       -1.1785771172
 H         -3.5099729906        3.0049163288        0.2691262337
 H         -6.4107000402        0.3144568889       -0.1950947596
 H         -7.5640797901        0.5702309470        1.0979819707
 H         -5.2886413104        2.1786954165        1.7686751827
 H         -5.7888205101        0.6656626255        2.5384789608
 O         -4.1914578699       -0.8150045731        1.6029973088
 C         -3.1988837998       -1.6834979423        1.1850089476
 O         -3.1918457595       -2.7796077731        1.7794941462
 O         -1.6248095702        0.4456738611       -1.2899820697
 C         -1.2561528297       -2.2545311902       -0.2555293932
 C          0.0865180702       -1.7206917805        0.1803364474
 C          0.4523688403       -1.8350298822        1.5191652572
 C          1.6524208402       -1.3185327725        1.9682493278
 C          2.5106402601       -0.6713055313        1.0952122786
 C          2.1453580800       -0.5339761196       -0.2363473412
 C          0.9457908100       -1.0703793292       -0.6896042418
 H          0.6703101100       -0.9477799579       -1.7247809517
 N          3.0047272398        0.1184566717       -1.1336899104
 S          3.8052115296        1.5101424912       -0.6540096986
 O          3.0563149695        2.2583462898        0.3289715724
 O          4.1219654994        2.2017622529       -1.8847469178
 C          5.3153302597        0.8942835505        0.0644419805
 C          6.0670237399       -0.0038020484       -0.6678025807
 C          7.2491138300       -0.4844307989       -0.1278317914
 C          7.6598293300       -0.0592541204        1.1268336591
 C          6.8965229798        0.8459358485        1.8478234003
 C          5.7123222997        1.3297823590        1.3134481910
 H          5.0839549896        2.0300793482        1.8408534020
 H          7.2171329798        1.1760907873        2.8228852807
 H          8.5799426101       -0.4355508408        1.5453477386
 H          7.8451695501       -1.1886814581       -0.6856105123
 H          5.7147576299       -0.3080394772       -1.6391342111
 H          2.6203915897        0.2214917028       -2.0616827602
 H          3.4434378400       -0.2577970716        1.4416962091
 H          1.9251487003       -1.4189193638        3.0078898277
 H         -0.2260894996       -2.3262974032        2.2032766566
 H         -1.4529476896       -3.1744002909        0.3111534056
 C         -1.3453518898       -2.5668694683       -1.7345807736
 C         -0.6276092196       -3.7655660074       -2.2757790752
 C         -2.1231197496       -3.7665108878       -2.1813845852
 H         -2.6985757796       -3.6965123767       -3.0923657650
 H         -2.5883144794       -4.3725670389       -1.4176372959
 H         -0.1748118597       -3.6991304961       -3.2532634352
 H         -0.0752164894       -4.3719649382       -1.5741570860
 H         -1.4024247499       -1.6827685475       -2.3575726625
