  62
        -98.94204418
 C         -0.9584161232       -1.0887164894        0.7362728137
 C         -1.6958335968       -0.9695419282       -0.4636714298
 C         -2.4317416470        0.2918645531       -0.6591763542
 C         -2.3224566345        1.2723509498        0.2553255437
 C         -2.8877983473        2.6777096157        0.2740378883
 C         -4.0714512768        3.0556768886       -0.6134861547
 C         -5.3763611641        2.3290047104       -0.2936267984
 H         -5.7240544569        2.6506392879        0.6911655565
 H         -6.1232047050        2.6383226598       -1.0282185485
 C         -5.2945902922        0.8044972774       -0.2824455795
 H         -4.6598334029        0.4764140180        0.5430748657
 H         -6.2989800242        0.4178952314       -0.0899462831
 C         -4.7908460745        0.1671020043       -1.5767754856
 H         -4.9614007859       -0.9098037200       -1.4989097340
 H         -5.3749932457        0.5375411876       -2.4212828126
 C         -3.2953647584        0.3742500956       -1.8835310010
 H         -2.9665246059       -0.4339154690       -2.5436494187
 H         -3.1182913659        1.3098788680       -2.4102239137
 H         -4.2422689209        4.1252257824       -0.4619041391
 H         -3.8130229184        2.9241001265       -1.6603144367
 H         -3.1452622083        2.8799105058        1.3185985760
 H         -2.0500592240        3.3399139277        0.0245598742
 O         -1.5558796187        1.1300211895        1.3762420627
 C         -0.8604075166       -0.0369322353        1.6434292605
 O         -0.2014551063       -0.0115029899        2.7025754865
 O         -1.7414712946       -1.8728532464       -1.3401316679
 C         -0.1263840586       -2.3313389818        1.0039716978
 C          0.9352707224       -2.4266669180       -0.0658387756
 C          1.2131142324       -3.5766321044       -0.7915073971
 C          2.1694709627       -3.5531672094       -1.7930364953
 C          2.8509785349       -2.3899206814       -2.1003101834
 C          2.5900554348       -1.2371645964       -1.3671721286
 C          1.6607338252       -1.2745339068       -0.3428396531
 H          1.4626003188       -0.3788507943        0.2278570121
 N          3.2629039109       -0.0345173109       -1.6291650293
 S          2.4673371725        1.4224088912       -1.4166137463
 O          1.0642709274        1.3349744952       -1.7506353201
 O          3.2423152527        2.3648072747       -2.1988926136
 C          2.6800134459        1.8044029305        0.3080500342
 C          3.9033624507        1.5662075827        0.9024499068
 C          4.0688577739        1.8893666854        2.2394319911
 C          3.0179144735        2.4450866451        2.9534814849
 C          1.7986783135        2.6853927639        2.3401965905
 C          1.6279527945        2.3646263902        1.0035418332
 H          0.6888305226        2.5161698248        0.4936506813
 H          0.9750521556        3.1042322433        2.8955347248
 H          3.1457390766        2.6892360882        3.9962215288
 H          5.0145263492        1.7030112908        2.7226327674
 H          4.6949803467        1.1283223875        0.3176576726
 H          3.8470128893       -0.0358824484       -2.4525933616
 H          3.5740570749       -2.3683420906       -2.9012818421
 H          2.3729405266       -4.4510283790       -2.3567578125
 H          0.6723126514       -4.4856421520       -0.5855670325
 H          0.3741886267       -2.1591666227        1.9681909227
 C         -0.9981223377       -3.5629572972        1.1149995894
 C         -0.5457826289       -4.7317345020        1.9365524377
 C         -1.6648526572       -3.8621353865        2.4229284140
 H         -2.6699472801       -4.2561341266        2.4107433564
 H         -1.4706836027       -3.1872881753        3.2440441254
 H         -0.7847569967       -5.7268863203        1.5931250146
 H          0.4088221207       -4.6530282264        2.4342933420
 H         -1.5615084461       -3.7574255882        0.2099923265
