  62
        -98.94686286
 C          1.2414459254        1.2243746901        0.0848513996
 C          1.9969081373        0.7012911698        1.1600319457
 C          2.6712475594       -0.5791362843        0.9081135843
 C          2.5070394555       -1.1845719845       -0.2826491920
 C          3.1842269147       -2.4596961401       -0.6924908227
 C          4.5231317439       -2.1779205128       -1.3890291586
 C          5.4263568860       -1.2098799758       -0.6250825271
 H          6.3537347690       -1.1122438940       -1.1936088363
 H          4.9570289436       -0.2236818868       -0.6046831472
 C          5.7515028851       -1.6444173521        0.8108419845
 H          5.5476309413       -2.7089444710        0.9320091108
 H          6.8189526661       -1.4974690946        0.9885867499
 C          5.0083813144       -0.8599344086        1.8937440341
 H          5.1367480536        0.2119626606        1.7226396320
 H          5.4668471356       -1.0934739663        2.8585296762
 C          3.5075333511       -1.1519906827        2.0177797561
 H          3.1527075118       -0.6769462937        2.9374001488
 H          3.3488504241       -2.2287917596        2.1059015403
 H          4.3187601595       -1.7496776771       -2.3728470237
 H          5.0439284894       -3.1263953190       -1.5326644273
 H          3.3456307202       -3.0795109529        0.1873190542
 H          2.5318108157       -2.9904756143       -1.3867135885
 O          1.7374936142       -0.6728177137       -1.2749372622
 C          1.0820790159        0.5392601322       -1.1208059557
 O          0.4059204860        0.8873982436       -2.1043540757
 O          2.0950802651        1.2734644615        2.2804710715
 C          0.5140406850        2.5449206490        0.2684817000
 C         -0.9708550148        2.3077953287        0.1505378984
 C         -1.8028528394        3.0083049477       -0.7113044587
 C         -3.1498202290        2.6959041001       -0.7942638519
 C         -3.6960857102        1.6897093005       -0.0191964892
 C         -2.8732682145        0.9920813036        0.8561403107
 C         -1.5267627118        1.3049526599        0.9367562695
 H         -0.8871912870        0.7546809794        1.6163238893
 N         -3.4171559200       -0.0445864302        1.6480261888
 S         -3.9929507310       -1.3737364219        0.8049771148
 O         -5.1703420586       -0.9842131941        0.0725189770
 O         -4.1700243160       -2.4107352370        1.7963103753
 C         -2.6858855671       -1.8177849123       -0.3233196903
 C         -1.7117271783       -2.6964650343        0.1063959941
 C         -0.6741535459       -3.0183303942       -0.7528791553
 C         -0.6239265714       -2.4502008325       -2.0164315813
 C         -1.6018254854       -1.5586679261       -2.4277214259
 C         -2.6446293223       -1.2367554946       -1.5746310497
 H         -3.4253120417       -0.5515026054       -1.8616917990
 H         -1.5453074829       -1.1026806615       -3.4024421371
 H          0.1865421340       -2.6926649986       -2.6854642600
 H          0.0926463159       -3.7059362471       -0.4324756628
 H         -1.7914929358       -3.1232901246        1.0937285788
 H         -2.7795434191       -0.3634862604        2.3646509912
 H         -4.7378457072        1.4210114644       -0.0869143621
 H         -3.7829277163        3.2432889897       -1.4759839465
 H         -1.3965527615        3.7920595430       -1.3288013948
 H          0.7303488881        2.8588227826        1.3003956794
 C          1.0461743736        3.5944740059       -0.6829028514
 C          0.9338194025        5.0482009260       -0.3361265657
 C          2.2691533279        4.3694960851       -0.2975433972
 H          2.9925280995        4.6066921212       -1.0632050781
 H          2.7088309582        4.1577943731        0.6663873287
 H          0.7422398185        5.7550303712       -1.1291924770
 H          0.4678191382        5.3034346765        0.6035937211
 H          0.9449750105        3.3055904327       -1.7226916447
