  62
        -98.93845127
 C         -2.7280882159       -0.7601351662       -0.3813005295
 C         -3.1872213497        0.1005063440        0.6497432552
 C         -3.2756406564        1.5256788869        0.3207130714
 C         -2.9397143560        1.9444539917       -0.9123903688
 C         -2.9646736749        3.3656076843       -1.4044835630
 C         -1.7020477252        4.1611403306       -1.0444115091
 C         -1.5863397138        4.5658434137        0.4258133810
 H         -0.7884422270        5.3081060769        0.4910516448
 H         -2.5105381788        5.0493137954        0.7446863035
 C         -1.2543369632        3.4069543825        1.3767555946
 H         -0.8477118899        2.5673508417        0.8055336716
 H         -0.4674026116        3.7168085388        2.0689410564
 C         -2.4321634379        2.9200560508        2.2220909794
 H         -2.7377831958        3.7111273992        2.9107963404
 H         -2.0928754180        2.0671396051        2.8159873441
 C         -3.6581179984        2.4780745562        1.4125419432
 H         -4.1690827544        3.3468064100        0.9982543204
 H         -4.3413998578        1.9546135146        2.0858164647
 H         -1.7040160533        5.0697441328       -1.6511490377
 H         -0.8243325360        3.5728945805       -1.3248533872
 H         -3.0440943958        3.3178373182       -2.4926283179
 H         -3.8442606515        3.8766149978       -1.0120774003
 O         -2.5374852252        1.0876778303       -1.8853611185
 C         -2.3746988189       -0.2713269313       -1.6390892599
 O         -1.9280243403       -0.9003382670       -2.6178361011
 O         -3.5102625967       -0.3118005369        1.7959391485
 C         -2.5399612156       -2.2198532165       -0.0013468535
 C         -1.1616395278       -2.3806702620        0.5892804310
 C         -0.9599674273       -2.9492274011        1.8403936835
 C          0.3076221929       -3.0008575660        2.3964621669
 C          1.3964294430       -2.4796438265        1.7204584837
 C          1.2042346437       -1.9206401779        0.4653651585
 C         -0.0610220097       -1.8818398251       -0.0948173623
 H         -0.1989938542       -1.4314180917       -1.0681502553
 N          2.3093805833       -1.3351398243       -0.2125421521
 S          2.5709961784        0.2657441667        0.2845812735
 O          2.4093380985        0.3309660123        1.7145700806
 O          1.7519139684        1.1647646955       -0.5028708850
 C          4.2883058049        0.4698884334       -0.1444528101
 C          4.6296710262        1.0679610579       -1.3413999132
 C          5.9697118221        1.1682256467       -1.6821660574
 C          6.9388042248        0.6667485485       -0.8267445322
 C          6.5798215334        0.0684396830        0.3720893849
 C          5.2422993221       -0.0336109438        0.7184745664
 H          4.9149915852       -0.4832243742        1.6411391462
 H          7.3362669426       -0.3189385383        1.0353615545
 H          7.9803899421        0.7440215765       -1.0957430983
 H          6.2510992269        1.6348877386       -2.6125082063
 H          3.8431857454        1.4493533091       -1.9729854346
 H          2.1384849511       -1.3007312716       -1.2105522339
 H          2.3822269191       -2.4824971247        2.1549503090
 H          0.4450901664       -3.4376961559        3.3738162603
 H         -1.8094996855       -3.3259635064        2.3910641246
 H         -3.2685809808       -2.4005088791        0.8047651583
 C         -2.8415962310       -3.2012631561       -1.1227948456
 C         -1.7933973712       -4.0299821834       -1.7972852912
 C         -2.7645265780       -4.6761618438       -0.8585133309
 H         -3.5331597782       -5.3158257277       -1.2642977407
 H         -2.3916958602       -4.9863379601        0.1060654960
 H         -1.8985961367       -4.1988474253       -2.8579908386
 H         -0.7694720895       -3.9212481208       -1.4754872028
 H         -3.6574129638       -2.8595748923       -1.7509491243
