  62
        -98.94440472
 C         -1.9463364958       -1.3442934228        0.0718069205
 C         -2.2262860593       -0.3839193633       -0.9302716271
 C         -3.6020206401        0.1367624944       -0.9574463262
 C         -4.5028600063       -0.3113421750       -0.0653102828
 C         -5.9175458960        0.1753321323        0.0499004444
 C         -6.0252884172        1.3447717601        1.0384604394
 C         -4.9962699560        2.4505241878        0.8026553932
 H         -5.1882752479        3.2353877555        1.5375475337
 H         -3.9971007492        2.0584346882        1.0072030419
 C         -5.0245497543        3.0541362161       -0.6085311461
 H         -5.9727954875        2.8189351101       -1.0932534408
 H         -4.9642538609        4.1413887970       -0.5251776242
 C         -3.8710318132        2.6126276967       -1.5112805432
 H         -2.9217354183        2.7612916816       -0.9897847974
 H         -3.8639188093        3.2590447987       -2.3931304913
 C         -3.9293248832        1.1620247658       -2.0068565821
 H         -4.9080509748        0.9635016062       -2.4479605859
 H         -3.1714444603        1.0471582623       -2.7871877037
 H         -5.8846801236        0.9575103161        2.0502586046
 H         -7.0317508429        1.7618212521        0.9712837962
 H         -6.5360733332       -0.6492707049        0.4082916728
 H         -6.2724687883        0.4822254113       -0.9320170676
 O         -4.2042025334       -1.2412671486        0.8758689397
 C         -2.9300813385       -1.7701484538        0.9721920599
 O         -2.7962032353       -2.6101827366        1.8840499871
 O         -1.3894068350        0.0367917429       -1.7748303291
 C         -0.5834763320       -1.9966815417        0.2524570397
 C          0.3835276248       -1.0800257247        0.9626978462
 C          0.9052425219       -1.4167432600        2.2060001437
 C          1.8166493374       -0.5878626921        2.8377072777
 C          2.2269323063        0.5913156821        2.2421417658
 C          1.7050317232        0.9385496261        1.0029755432
 C          0.7968453737        0.1043352816        0.3691825403
 H          0.3912322762        0.3828919089       -0.5921151844
 N          2.1323629889        2.1298182402        0.3777917668
 S          3.7804972874        2.2101797709        0.0754860741
 O          4.4699789735        2.5491695872        1.2950974508
 O          3.9349837662        3.1406426007       -1.0200345171
 C          4.2118994756        0.5548519799       -0.4294548039
 C          3.7803395476        0.1205548296       -1.6669751694
 C          4.0347075662       -1.1876102162       -2.0439619534
 C          4.7048753650       -2.0372418361       -1.1771783242
 C          5.1313740441       -1.5857777183        0.0618363104
 C          4.8814529730       -0.2775309450        0.4438476255
 H          5.1948911660        0.1141449334        1.3974801952
 H          5.6524221809       -2.2493516899        0.7328442829
 H          4.8963866143       -3.0576034547       -1.4700411089
 H          3.7044748004       -1.5391585755       -3.0084918929
 H          3.2636237975        0.8093240338       -2.3165153971
 H          1.6189580232        2.3266339343       -0.4702438516
 H          2.9421945252        1.2465077922        2.7128127640
 H          2.2124185314       -0.8631725427        3.8033323683
 H          0.5831636024       -2.3317019962        2.6816021361
 H         -0.7591670504       -2.8642123926        0.9018971004
 C          0.0164353061       -2.4889745807       -1.0517266047
 C          1.0812221939       -3.5411906771       -1.0067295815
 C         -0.2860256627       -3.8790238871       -1.5196715094
 H         -0.4162422882       -4.0488650466       -2.5779434404
 H         -0.9299220677       -4.4860095545       -0.8995661372
 H          1.8948497462       -3.4783818181       -1.7120219845
 H          1.3669231418       -3.9212535421       -0.0378355109
 H          0.0994645566       -1.7181791555       -1.8059093794
