  62
        -98.93861013
 C          2.6329026307        0.2309981351       -0.4396472568
 C          2.2615580676        0.8918099170        0.7564610979
 C          1.6200617409        2.2019720614        0.5923707039
 C          1.4357453953        2.7025583384       -0.6420475727
 C          0.7619384948        4.0036295070       -0.9842583641
 C         -0.7453877376        4.0505666976       -0.6614055655
 C         -1.0764768955        4.7079982637        0.6846604399
 H         -0.2569267923        5.3727389201        0.9614256416
 H         -1.9613629455        5.3355082308        0.5598863622
 C         -1.3673918269        3.7478600858        1.8421966219
 H         -2.3855330976        3.3666046966        1.7369482604
 H         -1.3218166754        4.3211509607        2.7712168314
 C         -0.4399612598        2.5370620018        1.9581909213
 H         -0.7007535991        1.8004006579        1.1947171184
 H         -0.6208789630        2.0584717718        2.9234072258
 C          1.0621239672        2.8571537533        1.8223896071
 H          1.2287650304        3.9330544546        1.7960981816
 H          1.6073523428        2.4409087340        2.6721260429
 H         -1.2259379784        4.6271782400       -1.4537319890
 H         -1.1503914936        3.0383726302       -0.7055395547
 H          1.2755062692        4.8195182628       -0.4709230150
 H          0.9056484512        4.1381640215       -2.0582259209
 O          1.8689459598        2.0646071051       -1.7647194146
 C          2.4260289271        0.7989520526       -1.6942980269
 O          2.7031272258        0.2942952115       -2.8046142044
 H          0.4819599854       -0.9421800899       -0.6389063100
 C          0.7262616005       -1.7506334177        0.0346205225
 C          2.0591992958       -2.0543086317        0.2824920870
 C          2.3481010406       -3.1216401555        1.1222292592
 C          1.3228721712       -3.8434197103        1.7108968215
 C         -0.0006046265       -3.5087462437        1.4946135700
 C         -0.3003574655       -2.4384752704        0.6565052114
 N         -1.6299106211       -2.0222049914        0.4787813713
 S         -2.0769010814       -0.9412516276       -0.7259719226
 O         -1.8318517695       -1.5092815805       -2.0353792494
 O         -1.4866243530        0.3465995432       -0.4643472020
 C         -3.8283557528       -0.8646018236       -0.4067231480
 C         -4.2670591031       -0.0695804690        0.6353299914
 C         -5.6229341153       -0.0204671114        0.9164521801
 C         -6.5128545708       -0.7640557675        0.1552035997
 C         -6.0583950475       -1.5554843302       -0.8888334890
 C         -4.7028875818       -1.6093026833       -1.1745922710
 H         -4.3038694807       -2.2025499511       -1.9816474571
 H         -6.7529969411       -2.1293819624       -1.4807455975
 H         -7.5678157512       -0.7239619725        0.3756897651
 H         -5.9795856055        0.5959006534        1.7257979170
 H         -3.5375940137        0.4946324650        1.1935292607
 H         -2.3128269934       -2.7542171810        0.6103550479
 H         -0.7953624972       -4.0576107509        1.9754029925
 H          1.5603566266       -4.6733931582        2.3589897462
 H          3.3745910810       -3.3840848443        1.3204143398
 C          3.1205855393       -1.2046611355       -0.3804232622
 H          3.2258376797       -1.5363452734       -1.4249644921
 C          4.4695912762       -1.2956663633        0.3023488013
 C          5.4601017496       -2.3420201606       -0.1094620460
 C          5.6947001055       -0.9060709816       -0.4670752218
 H          6.4752518239       -0.3644417761        0.0455040329
 H          5.5552170113       -0.6030630522       -1.4950111635
 H          5.1745400259       -3.0181610464       -0.9013699770
 H          6.0856967922       -2.7867782666        0.6497002725
 H          4.4225764474       -1.0129732194        1.3474805220
 O          2.4424778782        0.4055620962        1.9036629804
