  62
        -98.93737022
 C         -2.2833959820       -0.6751456457        0.1375546633
 C         -3.5404554124       -1.0324562186        0.6899006200
 C         -4.7245831810       -0.5932192725       -0.0556761579
 C         -4.5718730378        0.1132433441       -1.1900814302
 C         -5.6787434702        0.6116588731       -2.0791912130
 C         -6.2931037831        1.9427502871       -1.6246478990
 C         -7.1773634228        1.8597774185       -0.3797803687
 H         -7.7119055712        2.8086631855       -0.3031084163
 H         -7.9231570518        1.0761598523       -0.5167142810
 C         -6.4092766612        1.6195310328        0.9274631014
 H         -5.3517278644        1.8479929940        0.7755815216
 H         -6.7764849472        2.3026321527        1.6967177626
 C         -6.5338264037        0.2014978083        1.4848604104
 H         -5.9228633713        0.1331169377        2.3885661974
 H         -7.5715673832        0.0073062838        1.7646795561
 C         -6.0745450034       -0.8992610454        0.5197333774
 H         -6.8062086791       -1.0306886831       -0.2771802830
 H         -5.9933599327       -1.8341868931        1.0796378308
 H         -5.4858956180        2.6582797958       -1.4517939824
 H         -6.9002234912        2.3196615584       -2.4509094210
 H         -6.4598623881       -0.1457382318       -2.1507944738
 H         -5.2404561810        0.7549639477       -3.0691677072
 O         -3.3503935170        0.4515813210       -1.6795044946
 C         -2.1777183854        0.0923587295       -1.0234394651
 O         -1.1467945056        0.5160867038       -1.5774724476
 O         -3.6658671460       -1.6870683836        1.7589652413
 C         -1.0396433207       -1.1084310678        0.8914562043
 C         -0.0701323435        0.0381305591        1.0245948420
 C         -0.4564479384        1.1603796141        1.7539252371
 C          0.3988729755        2.2337086928        1.9061530528
 C          1.6669812746        2.2031600825        1.3526281211
 C          2.0596292775        1.0913574488        0.6180638266
 C          1.1921560721        0.0200507800        0.4552797736
 H          1.5170869711       -0.8181791193       -0.1380651079
 N          3.3294512798        1.0367022632        0.0222109338
 S          4.1170117259       -0.4534362698       -0.0466413433
 O          3.6999919281       -1.1582466170       -1.2324813583
 O          3.9514073558       -1.1581668960        1.2052533067
 C          5.8083285277        0.0828450091       -0.2323453910
 C          6.2572009519        0.4407416229       -1.4897502702
 C          7.5614437531        0.8865649039       -1.6334659347
 C          8.3903099630        0.9676161833       -0.5241780325
 C          7.9263802166        0.6034156406        0.7309019364
 C          6.6225832229        0.1578654868        0.8820146316
 H          6.2210936220       -0.1441058202        1.8359703342
 H          8.5741194889        0.6643228313        1.5905331151
 H          9.4052208867        1.3139139616       -0.6393429397
 H          7.9263391996        1.1676300199       -2.6081865545
 H          5.5795335914        0.3523029765       -2.3230084697
 H          3.9448152934        1.7772990389        0.3289008375
 H          2.3398959581        3.0381814387        1.4764261121
 H          0.0817736028        3.0984020479        2.4698256303
 H         -1.4444474318        1.1802175794        2.1945718904
 H         -1.4059290356       -1.3573966536        1.9024862591
 C         -0.3893240669       -2.3714986588        0.3477237557
 C         -1.2044687360       -3.4470129200       -0.3035798369
 C         -0.2463347077       -2.6349757357       -1.1199497920
 H          0.6658115638       -3.0992641741       -1.4671839786
 H         -0.6413283552       -1.8977658572       -1.8015063977
 H         -0.9585600245       -4.4766338773       -0.0916610655
 H         -2.2619420943       -3.2652305675       -0.4292797250
 H          0.4309885309       -2.7045593119        0.9783667844
