  62
        -98.94122690
 C          2.7074354021        0.1739849091       -0.4247395219
 C          2.9012952975       -0.7462574866        0.6399583691
 C          2.5106867091       -2.1346321415        0.3854423210
 C          2.0287325100       -2.4767633337       -0.8225764622
 C          1.5527222918       -3.8422073927       -1.2349455908
 C          0.0968613188       -4.1170027945       -0.8320341760
 C         -0.1208655435       -4.3925209630        0.6565166959
 H         -1.1253150270       -4.8072585590        0.7615277027
 H          0.5851404441       -5.1521860898        0.9948747444
 C         -0.0112961644       -3.1486743728        1.5499429798
 H         -0.1224516097       -2.2475812567        0.9399574998
 H         -0.8397935294       -3.1364681007        2.2628963151
 C          1.2812271955       -3.0565342070        2.3624196560
 H          1.3115896831       -3.8697517526        3.0916501352
 H          1.2666904224       -2.1107148364        2.9107237929
 C          2.5677335232       -3.1030911462        1.5275386225
 H          3.4022680393       -2.8116089095        2.1701382152
 H          2.7424147992       -4.1142824828        1.1608807636
 H         -0.5155438108       -3.2615863731       -1.1297734459
 H         -0.2417863066       -4.9886163428       -1.3972361046
 H          1.6249772218       -3.8836805170       -2.3238091538
 H          2.2034482395       -4.6074784105       -0.8112045693
 O          1.9207250467       -1.5845615716       -1.8383944982
 C          2.1859916310       -0.2351743912       -1.6519215957
 O          1.9241460190        0.4579854010       -2.6576878812
 O          3.3745575883       -0.4113730968        1.7591306404
 C          2.9458984369        1.6369434099       -0.0830363051
 C          1.6637766052        2.1790926752        0.5069653550
 C          1.6263301065        2.7864117938        1.7557171844
 C          0.4197363505        3.1558995547        2.3263704961
 C         -0.7747083743        2.9034163973        1.6747300887
 C         -0.7424119789        2.3144477862        0.4200017494
 C          0.4663687201        1.9817604933       -0.1657643483
 H          0.4700694866        1.5100143725       -1.1383270181
 N         -1.9687718767        1.9512328543       -0.2129914428
 S         -2.3455271832        0.3466061775        0.2038587579
 O         -2.1910178158        0.2112918668        1.6296476577
 O         -1.5931565193       -0.5763320166       -0.6206613277
 C         -4.0744123650        0.2803535698       -0.2254276836
 C         -4.9833211219        0.8595327262        0.6388780980
 C         -6.3264260090        0.8563747770        0.2992878896
 C         -6.7356646539        0.2789316024       -0.8937304408
 C         -5.8115664292       -0.2988302081       -1.7507279014
 C         -4.4659370226       -0.2974167412       -1.4169432013
 H         -3.7130012651       -0.7399801608       -2.0497810450
 H         -6.1318476003       -0.7489639559       -2.6766086697
 H         -7.7815909555        0.2775437334       -1.1569411807
 H         -7.0482444146        1.3032688618        0.9636776264
 H         -4.6175393765        1.2878536453        1.5571176267
 H         -1.8682313789        1.9671920393       -1.2212236669
 H         -1.7241972392        3.1339604799        2.1286593303
 H          0.4088973123        3.6173734016        3.3020226230
 H          2.5489037296        2.9357286214        2.2970933160
 H          3.7049648514        1.6373677031        0.7111984806
 C          3.4408892698        2.4998168065       -1.2236551879
 C          4.1744557169        3.7676628504       -0.9068381343
 C          4.9127548550        2.5986163718       -1.4845601127
 H          5.2485197834        2.6502623373       -2.5090529127
 H          5.5727479709        2.0404627026       -0.8366945222
 H          4.0038836559        4.6291013768       -1.5337319862
 H          4.3380829349        4.0051658522        0.1332315798
 H          2.7840519010        2.4972740887       -2.0832740617
