  62
        -98.93591657
 C         -1.2219407565       -1.7010728088        0.1444481147
 C         -2.3411777546       -1.3020178136        0.9155950279
 C         -3.1471041107       -0.2000324352        0.3727127217
 C         -2.7788210107        0.3841317128       -0.7814715150
 C         -3.5035882005        1.4908842180       -1.5011494551
 C         -3.5765083358        2.8458356430       -0.7709336764
 C         -4.8546036608        3.0538301378        0.0512160673
 H         -5.1903693554        4.0852161717       -0.0743249449
 H         -5.6423282339        2.4173455695       -0.3536649259
 C         -4.7226923610        2.8080048887        1.5574672939
 H         -4.2346274435        3.6697823906        2.0188376878
 H         -5.7293572700        2.7394332858        1.9754561335
 C         -3.9328594103        1.5633581713        1.9634314157
 H         -2.8640210389        1.7451517876        1.8254302653
 H         -4.0806866517        1.3996801781        3.0329459047
 C         -4.3084448568        0.2830307302        1.1921318186
 H         -5.1780956379        0.4564862659        0.5598649343
 H         -4.5488980894       -0.5165790762        1.8959087345
 H         -2.6981943557        2.9665573859       -0.1373194372
 H         -3.5366280359        3.6218296482       -1.5370931384
 H         -4.5155703885        1.1522443869       -1.7346809926
 H         -2.9705166807        1.6212385262       -2.4446051473
 O         -1.6791817785       -0.0085799968       -1.4771230352
 C         -0.8642472252       -1.0419022862       -1.0343194760
 O          0.1140705682       -1.2607186613       -1.7683620952
 O         -2.6518609706       -1.8404558467        2.0126001961
 C         -0.3373962272       -2.8057886593        0.6962491010
 C          1.1018373328       -2.3593721029        0.6370174650
 C          2.1044215747       -3.0462634873       -0.0325469654
 C          3.3904289283       -2.5350459143       -0.0833217593
 C          3.7046619219       -1.3352969937        0.5274422309
 C          2.7085116205       -0.6424806247        1.2038520850
 C          1.4260661764       -1.1611593587        1.2629789556
 H          0.6499484063       -0.6148282373        1.7862782006
 N          3.0094446873        0.5914076933        1.8206534031
 S          3.5527861056        1.8194271272        0.8177150632
 O          4.8770970559        1.4919580304        0.3546481042
 O          3.4325834040        3.0273550997        1.6038940735
 C          2.4155589359        1.8653778098       -0.5537293026
 C          1.2644114940        2.6175801006       -0.4300372424
 C          0.3619286514        2.6372932115       -1.4802954348
 C          0.6187901097        1.8978822471       -2.6239679333
 C          1.7733008414        1.1394881711       -2.7280420895
 C          2.6837364165        1.1215358264       -1.6843971800
 H          3.5940233097        0.5466556068       -1.7303914949
 H          1.9603508679        0.5523625447       -3.6120099487
 H         -0.0906226464        1.9035526668       -3.4362607927
 H         -0.5409357290        3.2223332666       -1.4038607270
 H          1.1052822601        3.1841833714        0.4742814731
 H          2.2495182913        0.9427062672        2.3866092076
 H          4.6956316111       -0.9137145800        0.4771374776
 H          4.1583686726       -3.0759514738       -0.6153154719
 H          1.8749489985       -3.9684013119       -0.5402683364
 H         -0.6265708301       -2.8825280224        1.7581910023
 C         -0.5774546108       -4.1775625958        0.0858187425
 C         -1.9107069310       -4.5384556383       -0.4960713331
 C         -0.7194578476       -4.3861228509       -1.3910751702
 H         -0.2901053318       -5.2775609670       -1.8247346605
 H         -0.6572422588       -3.5170399199       -2.0261982923
 H         -2.2984743059       -5.5297299691       -0.3146783592
 H         -2.6703743260       -3.7705854303       -0.5199680342
 H         -0.0708174296       -4.9610507122        0.6412611908
