  62
        -98.94698424
 C          1.0452447800        1.7204928975        0.4108052568
 C          1.7971895179        1.2641399356       -0.7021417363
 C          2.8431593457        0.2696232930       -0.4066448001
 C          3.0382947937       -0.1351450549        0.8603598554
 C          4.0542276157       -1.1491969092        1.2985069670
 C          3.4703392674       -2.5676264256        1.3217403730
 C          2.7508486758       -2.9669612311        0.0332636790
 H          2.4413760687       -4.0093003899        0.1416489395
 H          1.8362987473       -2.3805853748       -0.0805162299
 C          3.5914321752       -2.8150429931       -1.2417324433
 H          3.4425571552       -3.7010354727       -1.8625674320
 H          4.6521069007       -2.7677484247       -0.9894380984
 C          3.2116200176       -1.6058010001       -2.0993451904
 H          3.6653014741       -1.7313820192       -3.0866888582
 H          2.1267488629       -1.5913295482       -2.2357424359
 C          3.6569198204       -0.2387098096       -1.5626326938
 H          4.7178004000       -0.2732640916       -1.3024491228
 H          3.5239600802        0.4924555962       -2.3657763364
 H          2.7586474610       -2.6388643366        2.1475468978
 H          4.2845660371       -3.2692812955        1.5138152341
 H          4.9093196936       -1.1090915061        0.6263696371
 H          4.3833581617       -0.8869575937        2.3058482216
 O          2.3031979519        0.3281424471        1.9034529507
 C          1.2903191947        1.2528508606        1.7033942969
 O          0.6915042599        1.5821979098        2.7475102465
 H         -0.4920815795        0.3652717128       -1.0583009632
 C         -1.4025335965        0.9109124574       -0.8744585176
 C         -1.3682259960        2.1367129069       -0.2317281741
 C         -2.5662885899        2.8242913723       -0.0548189152
 C         -3.7584866852        2.2935430261       -0.5092776494
 C         -3.7897484672        1.0542251141       -1.1255901616
 C         -2.6013833186        0.3595882468       -1.3070273224
 N         -2.5856066994       -0.9077373420       -1.9129836618
 S         -1.6465273014       -2.1119092456       -1.2269066487
 O         -0.2534742266       -1.8938688525       -1.5128968242
 O         -2.2144818558       -3.3415677123       -1.7365457073
 C         -1.9663160253       -1.9709130818        0.5209428066
 C         -1.0526569823       -1.3439910733        1.3417714860
 C         -1.3635077311       -1.1564279824        2.6791467693
 C         -2.5781684390       -1.6070005369        3.1717749138
 C         -3.4819073095       -2.2502401921        2.3387017674
 C         -3.1796141784       -2.4275157195        0.9988781643
 H         -3.8531261281       -2.9244089680        0.3195030706
 H         -4.4222223727       -2.6049624895        2.7287762617
 H         -2.8183647232       -1.4548024852        4.2121424277
 H         -0.6610509075       -0.6367893336        3.3127365337
 H         -0.1141952983       -1.0044088803        0.9320023723
 H         -3.4964643330       -1.2613250859       -2.1681583840
 H         -4.7217401954        0.6298711289       -1.4658960400
 H         -4.6777906122        2.8407579582       -0.3684016381
 H         -2.5574789630        3.7801678383        0.4449583874
 C         -0.0759300709        2.7335302220        0.2825788026
 H         -0.2685020823        3.0916783281        1.3045710403
 C          0.3218678188        3.9252901929       -0.5720119309
 C         -0.1304065379        5.3057035786       -0.2070917854
 C          1.3060062846        4.9172014902       -0.0308880263
 H          2.0463120687        5.3259736610       -0.7017933113
 H          1.6705717341        4.7558332129        0.9736547706
 H         -0.3847305906        5.9890702730       -1.0026798331
 H         -0.7240861272        5.4266003824        0.6862933035
 H          0.3992968531        3.6801191166       -1.6239743029
 O          1.6243533232        1.6609485759       -1.8842228642
