  62
        -98.93772672
 C         -1.9871703481       -1.0071927483        0.0501805461
 C         -2.3000782424       -0.0362605891        1.0283068059
 C         -2.4039125807        1.3513643969        0.5559606148
 C         -2.1737156822        1.6181184799       -0.7427896225
 C         -2.2922821006        2.9702064001       -1.3878627186
 C         -3.7763337152        3.3249298951       -1.6118701938
 C         -4.2685936403        4.5204577033       -0.7959864412
 H         -3.8904722477        5.4391021511       -1.2491096941
 H         -5.3579056755        4.5395808127       -0.8687720063
 C         -3.8675776987        4.5278942075        0.6821082354
 H         -2.8363288173        4.8699654120        0.7815469403
 H         -4.4929424795        5.2730191723        1.1782801735
 C         -4.0124324346        3.1918609140        1.4219102586
 H         -4.7514484131        2.5579161191        0.9317852939
 H         -4.3857831713        3.3985022521        2.4268963544
 C         -2.6989608020        2.4046608211        1.5883996132
 H         -1.8559436781        3.0999570085        1.6457022561
 H         -2.7347313707        1.8602137508        2.5370564241
 H         -3.9426023895        3.5393190335       -2.6685312424
 H         -4.3766366758        2.4453124049       -1.3708629009
 H         -1.8073432113        3.7154435297       -0.7608299270
 H         -1.7618959115        2.9196160361       -2.3391206086
 O         -1.8779302277        0.6567893112       -1.6554435347
 C         -1.7512302991       -0.6712540433       -1.2827093870
 O         -1.4492412834       -1.4419324428       -2.2144324030
 H          0.4106167228       -1.0075527733        0.8943974939
 C          0.6497716138       -1.9622695645        0.4472098453
 C         -0.3683855155       -2.8650680852        0.1670425142
 C         -0.0310037806       -4.0923483286       -0.3884049316
 C          1.2887790340       -4.3847760434       -0.6878336220
 C          2.2914290568       -3.4619955488       -0.4555640155
 C          1.9658883230       -2.2387260935        0.1206682752
 N          2.9568724348       -1.2783127202        0.3940568260
 S          2.5379577374        0.3517432725        0.2399243439
 O          1.9108021399        0.7867933439        1.4641027601
 O          1.7938362828        0.5740487681       -0.9793774117
 C          4.1620486984        1.0798233954        0.1179118767
 C          4.9025944884        1.2406959010        1.2740353892
 C          6.1779045651        1.7752761705        1.1834845819
 C          6.6890253348        2.1374535498       -0.0541996548
 C          5.9335609717        1.9717602286       -1.2051980400
 C          4.6576473463        1.4360092624       -1.1218643845
 H          4.0298792191        1.2940018906       -1.9871787523
 H          6.3316109031        2.2568068479       -2.1656817951
 H          7.6814286599        2.5541610267       -0.1220795147
 H          6.7671252776        1.9075979660        2.0764286802
 H          4.4584196132        0.9532601454        2.2126754445
 H          3.8310236896       -1.4774265771       -0.0740612169
 H          3.3155233398       -3.6818692105       -0.7161150886
 H          1.5368391177       -5.3391014194       -1.1271483041
 H         -0.8026849520       -4.8139348623       -0.6011553193
 C         -1.7860669573       -2.4495657423        0.4780426822
 H         -1.9163899626       -2.4530830646        1.5710844776
 C         -2.8320429984       -3.3507847260       -0.1435269200
 C         -3.2869975087       -4.5878686209        0.5701964528
 C         -4.1980712267       -3.4027500683        0.4702612226
 H         -5.0549083352       -3.4609654747       -0.1839122327
 H         -4.3640382813       -2.8061446441        1.3554926014
 H         -2.8415128871       -4.8031613470        1.5296118224
 H         -3.5227608260       -5.4633915763       -0.0156933197
 H         -2.7670540101       -3.3735535344       -1.2256248853
 O         -2.4794697836       -0.3188732013        2.2458822231
