  62
        -98.93553771
 C          2.5018718959        0.7444220489        0.4040541104
 C          2.5754332766       -0.6718910579        0.4462402052
 C          3.7214868064       -1.2865621089       -0.2300241443
 C          4.6066440129       -0.5067457882       -0.8765336147
 C          5.8131001990       -0.9795884986       -1.6414455385
 C          7.0484865957       -1.2330388328       -0.7666622934
 C          6.9767154718       -2.4808728098        0.1143065945
 H          7.9816686114       -2.6566773083        0.5030965703
 H          6.7096354989       -3.3420374253       -0.4989568089
 C          6.0035945512       -2.3662922541        1.2959610819
 H          5.7609515881       -1.3149954518        1.4670562431
 H          6.4872475780       -2.7349747151        2.2033069749
 C          4.7029961655       -3.1514912896        1.1252880604
 H          4.0750625114       -2.9693715520        2.0011489959
 H          4.9225392048       -4.2206778003        1.0847960912
 C          3.8950094365       -2.7715205188       -0.1226138705
 H          2.9004877116       -3.2167126144       -0.0383501614
 H          4.3779074331       -3.1634901213       -1.0177016046
 H          7.2193940733       -0.3540282901       -0.1409215891
 H          7.9055154325       -1.3359283134       -1.4362295599
 H          5.5636986279       -1.8863536254       -2.1934414742
 H          6.0543499101       -0.1915253980       -2.3580666588
 O          4.4852407521        0.8444425784       -0.9254600669
 C          3.4448617387        1.5098232961       -0.2835835263
 O          3.4929962390        2.7458651065       -0.4139190661
 H         -1.1765040105        0.4373697027        1.4674998329
 C         -1.0755626488        0.9642297365        0.5280640212
 C          0.1512638333        1.5137519710        0.1882689552
 C          0.2772959264        2.1588768091       -1.0381428705
 C         -0.8077240639        2.2577465688       -1.8895864908
 C         -2.0343306148        1.7181761047       -1.5420357632
 C         -2.1675509045        1.0594882309       -0.3272996919
 N         -3.4125127373        0.5209172160        0.0552244274
 S         -4.2634501743       -0.4150787649       -1.0661742872
 O         -3.4589515722       -1.5381949584       -1.4961500435
 O         -4.7523004110        0.4487181393       -2.1104735969
 C         -5.6224563362       -0.9665770650       -0.0551007508
 C         -5.5953092612       -2.2337502483        0.4948206239
 C         -6.6495733378       -2.6372722353        1.2994410124
 C         -7.7043107427       -1.7701631539        1.5414663764
 C         -7.7168460006       -0.5008494755        0.9821027167
 C         -6.6672622959       -0.0917667378        0.1753768470
 H         -6.6380691892        0.8806897142       -0.2873009426
 H         -8.5398800140        0.1691945488        1.1713658278
 H         -8.5227569514       -2.0869922118        2.1684086647
 H         -6.6437702337       -3.6243206261        1.7332269574
 H         -4.7583313236       -2.8770330144        0.2740811169
 H         -3.3379892014        0.0076742114        0.9244085921
 H         -2.8802343180        1.7839845329       -2.2061013996
 H         -0.6986781261        2.7614385645       -2.8386611168
 H          1.2332550488        2.5776869622       -1.3153446690
 C          1.3255712638        1.3790321292        1.1243033999
 H          1.0451756896        0.6436794954        1.8956303329
 C          1.6736557380        2.6742267955        1.8435621603
 C          1.1663812560        4.0197681469        1.4302276313
 C          0.6313285920        3.3701911472        2.6686297349
 H          0.9129281199        3.7705509175        3.6306100095
 H         -0.3739211992        2.9779712482        2.6277800784
 H          0.5214400233        4.0819698038        0.5682221462
 H          1.8408076195        4.8566135279        1.5277625981
 H          2.6790020046        2.6495403005        2.2513918666
 O          1.7191549814       -1.3882341713        1.0327614163
