  62
        -98.93618129
 C         -1.7905608798       -0.1631561102       -0.2639685590
 C         -2.9072642797       -0.3807614211       -1.1041424788
 C         -4.2197123498       -0.4152322502       -0.4418739288
 C         -4.2829876998       -0.2548606486        0.8928358810
 C         -5.5470337498       -0.1896674676        1.7023662709
 C         -6.2072268297        1.1944362523        1.5396032092
 C         -7.5649792697        1.1666376216        0.8374923192
 H         -8.3177738597        0.7919917125        1.5343049396
 H         -7.8275284396        2.1979464314        0.5922652280
 C         -7.6408808597        0.3172222902       -0.4349052898
 H         -7.7509740398       -0.7349893095       -0.1681686286
 H         -8.5578410397        0.6036272496       -0.9544442302
 C         -6.4611889596        0.4563578489       -1.4057354999
 H         -5.9646580096        1.4177827890       -1.2732676510
 H         -6.8556791796        0.4402438678       -2.4238254799
 C         -5.4183782198       -0.6731755611       -1.3127643686
 H         -5.9092810499       -1.5973006107       -0.9946416175
 H         -5.0048438697       -0.8488862923       -2.3104567584
 H         -6.3397051697        1.6519438434        2.5211389387
 H         -5.5217981896        1.8372184916        0.9834604685
 H         -6.2270863499       -0.9776571979        1.3862570217
 H         -5.2742613899       -0.3606251064        2.7438922411
 O         -3.1852055098       -0.0545075578        1.6674660308
 C         -1.9130758498       -0.0050533886        1.1162949408
 O         -1.0004257898        0.1794454523        1.9422628906
 O         -2.8095919397       -0.5467208325       -2.3508796886
 C         -0.4054502497       -0.1135689011       -0.8801163190
 C          0.4849409002       -1.1840060105       -0.2981311678
 C         -0.0361634800       -2.4549933902       -0.0685521563
 C          0.7516493999       -3.4587057096        0.4590080349
 C          2.0846800099       -3.2248682394        0.7475513846
 C          2.6210935200       -1.9673284398        0.5049834732
 C          1.8215498702       -0.9550244603       -0.0093567480
 H          2.2586839503        0.0131942395       -0.1884423491
 N          3.9679674501       -1.6955198496        0.7879570229
 S          4.8781286602       -0.8025951109       -0.2957023481
 O          4.4403856002       -1.0083169224       -1.6564180278
 O          6.2493336101       -1.1691365907       -0.0089943876
 C          4.6345492103        0.8949876997        0.1808854800
 C          4.5884090705        1.8632878785       -0.8022897712
 C          4.4562091306        3.1922596590       -0.4302843927
 C          4.3724692806        3.5275185105        0.9121251669
 C          4.4212109604        2.5427205017        1.8872743281
 C          4.5583100003        1.2129808212        1.5223787896
 H          4.5973219702        0.4235943021        2.2541877505
 H          4.3521820104        2.8067871729        2.9303296877
 H          4.2672034207        4.5617752109        1.1997364857
 H          4.4180333607        3.9590276881       -1.1879357936
 H          4.6450407005        1.5571986273       -1.8347733908
 H          4.4908391000       -2.4779797292        1.1538110639
 H          2.7036460898       -4.0089646090        1.1568105156
 H          0.3278273898       -4.4351920994        0.6400761360
 H         -1.0746453300       -2.6445649303       -0.3039004061
 H         -0.5511076297       -0.3414693623       -1.9473801488
 C          0.1701904604        1.2821705290       -0.7558172906
 C          1.1015352105        1.8185008977       -1.8001033412
 C         -0.2989035995        2.3425057280       -1.7050805619
 H         -0.4515578694        3.3422229884       -1.3275069330
 H         -1.0101703695        2.0480157872       -2.4630518116
 H          1.9098899405        2.4602365580       -1.4837356319
 H          1.3508017205        1.1721166067       -2.6284909505
 H          0.3369428404        1.5704930602        0.2761715090
