  62
        -98.93162458
 C         -2.6651673013       -1.2287062048        0.2119606796
 C         -3.0537809844       -0.2284325287        1.1384001607
 C         -4.2422168212        0.5699062716        0.8002765038
 C         -4.8988882827        0.3137216942       -0.3438085774
 C         -6.1504425953        0.9655265418       -0.8764664418
 C         -6.2620379227        2.4909910384       -0.7518313732
 C         -4.9324678551        3.2502978408       -0.8701636317
 H         -4.1480292468        2.5795255761       -1.2249667681
 H         -5.0420893602        4.0440703536       -1.6114399805
 C         -4.4939868992        3.8952839268        0.4468218364
 H         -3.7816551044        4.6939493034        0.2264770947
 H         -5.3651312611        4.3553027513        0.9184715148
 C         -3.8226470117        2.9544582539        1.4467554389
 H         -2.8347860925        2.6644196341        1.0780582034
 H         -3.6672546352        3.5071541404        2.3765147058
 C         -4.5965929603        1.6646988434        1.7649607387
 H         -5.6685488549        1.8444413276        1.7943487727
 H         -4.2746635467        1.3142819048        2.7494622693
 H         -6.9419988379        2.8221056268       -1.5386417406
 H         -6.7330925800        2.7458543591        0.1964793126
 H         -6.1919911543        0.6801984346       -1.9304040237
 H         -7.0106138098        0.5024894512       -0.3840833700
 O         -4.4964659910       -0.6612689735       -1.2046297820
 C         -3.3729399971       -1.4445473334       -0.9701501949
 O         -3.1417490267       -2.2657253496       -1.8753531177
 O         -2.4369707194       -0.0222661428        2.2184917645
 C         -1.4342885194       -2.0410114155        0.5715787386
 C         -0.1911358972       -1.3935469930        0.0164816251
 C         -0.0822948643       -1.0772404074       -1.3344027085
 C          1.0672940360       -0.4837018236       -1.8228046736
 C          2.1239241164       -0.1851751859       -0.9795761616
 C          2.0246912867       -0.4926685427        0.3703459346
 C          0.8714390314       -1.0972095994        0.8568738875
 H          0.7927185198       -1.3246476162        1.9115526601
 N          3.0784230541       -0.1696195627        1.2370452034
 S          4.6583356583       -0.4954244507        0.7814815126
 O          4.7285854825       -1.6380500561       -0.0988621916
 O          5.3916279895       -0.5945712101        2.0240889410
 C          5.1704442247        0.9764734361       -0.0792590775
 C          5.7311549942        0.8773509512       -1.3374593151
 C          6.1372911029        2.0348194332       -1.9833700522
 C          5.9773082435        3.2639431889       -1.3623395018
 C          5.4145392906        3.3461191068       -0.0972545471
 C          5.0079235809        2.1928855751        0.5543921893
 H          4.5692012432        2.2152389141        1.5380347368
 H          5.2911836876        4.3038659309        0.3822730738
 H          6.2928496788        4.1634055484       -1.8671088541
 H          6.5753171570        1.9730660985       -2.9666481379
 H          5.8309488729       -0.0990943372       -1.7844504572
 H          2.9121850887       -0.4114553608        2.2027569932
 H          3.0193716440        0.2795043057       -1.3584885203
 H          1.1409536370       -0.2465561229       -2.8734306935
 H         -0.9067635906       -1.3052317619       -1.9934129350
 H         -1.3733336089       -1.9774847839        1.6700169707
 C         -1.5534112380       -3.5156264269        0.2146118769
 C         -0.7529313331       -4.1844900052       -0.8578668893
 C         -0.4506151013       -4.4647634980        0.5817229831
 H         -0.7095731874       -5.4292846644        0.9913766728
 H          0.4552475593       -4.0403410685        0.9894993253
 H         -1.2451986676       -4.9436795213       -1.4460272989
 H         -0.0473363599       -3.5923057022       -1.4186165505
 H         -2.5674933584       -3.8792746808        0.3464063225
