  62
        -98.94462181
 C         -0.7949268102       -1.3723826723        0.2809121978
 C         -1.1487530170       -0.4386101023       -0.7237488618
 C         -2.2674018477        0.4565776242       -0.3892087497
 C         -2.7822108897        0.4600642362        0.8521434654
 C         -3.9012649349        1.3337154593        1.3496039701
 C         -5.3003619733        0.7802591630        1.0448045913
 C         -5.7258234729        0.8575421510       -0.4221723136
 H         -6.7951708468        0.6398650756       -0.4572182194
 H         -5.5900321162        1.8761640844       -0.7867654556
 C         -4.9933994427       -0.1245451045       -1.3475948097
 H         -4.5176875818       -0.9046600123       -0.7488709119
 H         -5.7169113081       -0.6193491036       -1.9994894423
 C         -3.9386359820        0.5183688424       -2.2490670982
 H         -3.4550353878       -0.2719232004       -2.8292198796
 H         -4.4232698529        1.2009003459       -2.9510219981
 C         -2.8481509520        1.2886411136       -1.4923403110
 H         -3.2587033907        2.2184300296       -1.0999094602
 H         -2.0429324424        1.5248000400       -2.1923780070
 H         -5.3467898372       -0.2576242832        1.3823869926
 H         -6.0154295454        1.3547622532        1.6381056550
 H         -3.8067505603        2.3341265180        0.9276619331
 H         -3.7876843644        1.3976406838        2.4335829937
 O         -2.3109674838       -0.3510703960        1.8352389952
 C         -1.3631361781       -1.3200099835        1.5578212031
 O         -1.1021707934       -2.0679395810        2.5211977742
 O         -0.5911962424       -0.3421452447       -1.8482950174
 C          0.2123756397       -2.4936989044        0.0791463790
 C          1.6120172502       -2.0519666824        0.4292981785
 C          2.3504259283       -2.7483507504        1.3790346836
 C          3.6337158834       -2.3492765146        1.7049681252
 C          4.1943888321       -1.2384962778        1.1026360678
 C          3.4612841548       -0.5315768585        0.1543450720
 C          2.1818016020       -0.9468020772       -0.1881602626
 H          1.6292810376       -0.4026669188       -0.9392797364
 N          4.0100259502        0.6070237385       -0.4473280346
 S          3.0619598172        1.8452320808       -1.0291588011
 O          2.5458403345        1.5144724077       -2.3320759845
 O          3.9390120292        2.9991455003       -0.9886160297
 C          1.7268899320        2.1057306217        0.1281051702
 C          1.9041693977        1.8725614039        1.4771236083
 C          0.8635852080        2.1532806881        2.3483862936
 C         -0.3204662494        2.6855840969        1.8648155607
 C         -0.4760545990        2.9312027944        0.5102154002
 C          0.5519502915        2.6312124105       -0.3682038524
 H          0.4614710552        2.7831265862       -1.4318727285
 H         -1.3916303933        3.3562238328        0.1335534359
 H         -1.1259633451        2.9089008606        2.5464352486
 H          0.9814491953        1.9571575410        3.4020882004
 H          2.8349279496        1.4701386894        1.8419533837
 H          4.8735044995        0.9415525579       -0.0463834635
 H          5.1908315718       -0.9148281725        1.3616712591
 H          4.1982116210       -2.8996376870        2.4418830705
 H          1.9048559759       -3.5990728394        1.8724658314
 H         -0.0731606885       -3.2774060096        0.7952059464
 C          0.1849510536       -3.0920519840       -1.3137669731
 C          0.6290071448       -4.5098185723       -1.5044838805
 C         -0.8209220385       -4.1534780831       -1.6371084253
 H         -1.2691171517       -4.1551087149       -2.6193435080
 H         -1.4951080479       -4.4593145593       -0.8499217199
 H          1.1813387962       -4.7590907028       -2.3974849625
 H          0.9353959494       -5.0626526370       -0.6293379821
 H          0.4243435864       -2.3800021315       -2.0926906276
