  62
        -98.94402386
 C         -2.2055468901       -1.2558975563       -0.1707818395
 C         -2.6133090307       -0.1557269317       -0.9627103285
 C         -3.9927849976        0.3070585915       -0.7501077591
 C         -4.7750500194       -0.3317219069        0.1388384975
 C         -6.1762119477        0.0711682796        0.4944011010
 C         -6.1877422878        1.0391503121        1.6858859784
 C         -5.2115401848        2.2069883021        1.5426449126
 H         -5.3281752958        2.8385347951        2.4260466350
 H         -4.1888680183        1.8227253410        1.5560489923
 C         -5.4159968975        3.0539953138        0.2788161724
 H         -6.4100081233        2.8729270924       -0.1319187007
 H         -5.3661749290        4.1098772150        0.5531147855
 C         -4.3681205953        2.8282732592       -0.8128717362
 H         -3.3661105804        2.9184058105       -0.3849546281
 H         -4.4772242154        3.6213107712       -1.5576199432
 C         -4.4558700774        1.4885495581       -1.5548134657
 H         -5.4739386277        1.3345408526       -1.9182753227
 H         -3.7865311014        1.5436477578       -2.4184382222
 H         -7.2019121848        1.4235346379        1.8086309693
 H         -5.9240704140        0.4815195288        2.5875308851
 H         -6.6462677477        0.5361185306       -0.3699053178
 H         -6.7355185030       -0.8268600399        0.7620174643
 O         -4.3547231283       -1.4008362108        0.8620433873
 C         -3.0599879743       -1.8768656424        0.7408574468
 O         -2.7938367851       -2.8423189329        1.4846318554
 H          1.2003454102       -0.5916648420       -1.7853820894
 C          1.1298428943       -0.1996543421       -0.7833265255
 C          0.1819686315       -0.7017935602        0.0928651437
 C          0.1174962168       -0.1710768863        1.3791280247
 C          0.9657873791        0.8471113269        1.7688118410
 C          1.8988062414        1.3602658143        0.8841731728
 C          1.9759590588        0.8335956464       -0.3974967447
 N          2.9230598867        1.3451429731       -1.2981336221
 S          4.4762603053        1.6262328785       -0.7498286700
 O          4.5262059630        2.8768701746       -0.0343737475
 O          5.3134900356        1.5376009982       -1.9253469666
 C          4.8220432851        0.2776981012        0.3666648680
 C          5.0839803252        0.5330570914        1.6969910912
 C          5.3195026854       -0.5328942390        2.5507263530
 C          5.2851572743       -1.8293884425        2.0620265003
 C          5.0234776403       -2.0697580010        0.7216389156
 C          4.7886213617       -1.0080453260       -0.1363296518
 H          4.5896965589       -1.1612777472       -1.1846951936
 H          4.9994020053       -3.0792925947        0.3437858484
 H          5.4641736857       -2.6583370806        2.7284911493
 H          5.5253469691       -0.3489519882        3.5928949209
 H          5.0999331768        1.5561539258        2.0358833906
 H          2.9163205767        0.9031326275       -2.2049439537
 H          2.5552204309        2.1682960935        1.1633988115
 H          0.8990284580        1.2503140657        2.7679471119
 H         -0.6173243918       -0.5671651315        2.0672418356
 C         -0.7891127098       -1.7944799343       -0.2823917981
 H         -0.7101837897       -2.5923715829        0.4692507550
 C         -0.5510709154       -2.3921013525       -1.6526824749
 C          0.5323878889       -3.4096312665       -1.8440378028
 C         -0.9059929517       -3.8280705658       -1.8883268829
 H         -1.3360456246       -4.1027449939       -2.8398958345
 H         -1.3059161225       -4.3844227788       -1.0531153647
 H          1.1123688651       -3.6877433631       -0.9773308839
 H          1.0911153529       -3.4037761557       -2.7678510845
 H         -0.7491025838       -1.6935643913       -2.4573497883
 O         -1.8699718964        0.4120185494       -1.8051768551
