  62
        -98.94055177
 C          2.3386046593        0.1957724966        0.2776677767
 C          3.5180046740        0.5880330005        0.9546260460
 C          4.7247342727       -0.1900542521        0.6461474580
 C          4.6403489166       -1.2180618350       -0.2181875005
 C          5.8004001447       -2.0598134088       -0.6634155623
 C          6.4494099508       -1.4850322419       -1.9303502299
 C          6.7536481853        0.0107501342       -1.8455182908
 H          7.2370314151        0.2972170512       -2.7820940496
 H          5.8128878947        0.5632013024       -1.7879114837
 C          7.6493984600        0.4115160465       -0.6650341345
 H          8.1706120138       -0.4659892274       -0.2809125220
 H          8.4091584342        1.1090890263       -1.0237234518
 C          6.9143531761        1.1066801551        0.4824760694
 H          6.3149451452        1.9309245951        0.0876301530
 H          7.6619345108        1.5380399412        1.1534770897
 C          6.0017267772        0.2110012875        1.3296528801
 H          6.5550941033       -0.6695845842        1.6617755722
 H          5.7017113841        0.7826340864        2.2127737237
 H          7.3716463236       -2.0352434026       -2.1255080978
 H          5.7711564457       -1.6486357904       -2.7709880932
 H          6.5326173790       -2.1145269624        0.1397447897
 H          5.4329495429       -3.0646220569       -0.8780966023
 O          3.4832709385       -1.5819276331       -0.8284076161
 C          2.3061290415       -0.8820438872       -0.6069494251
 O          1.3257269058       -1.3137302974       -1.2423353538
 H         -1.5258270787        0.5744769577       -0.3898065794
 C         -1.2767305716       -0.0237319546        0.4701388227
 C         -0.0194774687        0.0522024678        1.0459710365
 C          0.2541634186       -0.7431109137        2.1567563902
 C         -0.7043884371       -1.5946081135        2.6692461937
 C         -1.9619258314       -1.6626402595        2.0947783348
 C         -2.2445870299       -0.8756131245        0.9855232707
 N         -3.5014031959       -0.9414565728        0.3623753290
 S         -4.1483472936        0.4703953280       -0.2987463416
 O         -3.6040381260        0.6707864044       -1.6178265528
 O         -3.9931373873        1.5669683843        0.6307130643
 C         -5.8663474989        0.0071024349       -0.4240131875
 C         -6.2809629320       -0.7152190663       -1.5270337104
 C         -7.6090572011       -1.1012116158       -1.6144002372
 C         -8.4953181382       -0.7615756566       -0.6028694294
 C         -8.0651740783       -0.0347739486        0.4971521986
 C         -6.7380531867        0.3538045960        0.5912211954
 H         -6.3614173209        0.9281886803        1.4223340546
 H         -8.7573789370        0.2307299132        1.2798600470
 H         -9.5284916186       -1.0627770202       -0.6741024335
 H         -7.9476036091       -1.6637221154       -2.4695650001
 H         -5.5578120712       -0.9483139959       -2.2913552292
 H         -4.1860456777       -1.4450033801        0.9096980225
 H         -2.7127808158       -2.3262001905        2.4961971606
 H         -0.4751983155       -2.2059518779        3.5292779332
 H          1.2346533393       -0.6841421090        2.6100771279
 C          1.0584128643        0.9712473522        0.5276148618
 H          1.3022927666        1.6914026203        1.3235783398
 C          0.6540807538        1.7398910395       -0.7123807658
 C         -0.1925694994        2.9704344475       -0.5915457159
 C          1.2530578872        3.0890486560       -0.9678054750
 H          1.5018948979        3.3592889493       -1.9830869781
 H          1.9429242436        3.4726271329       -0.2302422208
 H         -0.4905463516        3.2755750870        0.4004762607
 H         -0.9444439597        3.1525505676       -1.3452548525
 H          0.4911525411        1.0942952269       -1.5691318808
 O          3.5577180349        1.5397770555        1.7805638933
