  62
        -98.94350985
 C         -0.7707518897       -1.8460001697       -0.1196370102
 C         -1.8367841297       -1.5585914900        0.7603388300
 C         -2.8508486898       -0.5930004200        0.2922384702
 C         -2.7203495600       -0.0654430797       -0.9391272997
 C         -3.6039486802        0.9441580103       -1.6244962594
 C         -3.4024362903        2.3739070202       -1.0988309191
 C         -3.3368902102        2.4966378200        0.4212632609
 H         -2.5096900201        1.8948840000        0.8054095807
 H         -3.1031953302        3.5378689699        0.6610540410
 C         -4.6221312800        2.1245701697        1.1576249309
 H         -5.4387625201        2.7507283197        0.7910467511
 H         -4.4679770100        2.3638015495        2.2131177410
 C         -5.0500424699        0.6577302696        1.0632449007
 H         -5.5322319600        0.4460730698        0.1125788107
 H         -5.8038456998        0.4892738494        1.8378372607
 C         -3.9298138998       -0.3454682803        1.3180275504
 H         -3.4094500797       -0.0746442404        2.2448579204
 H         -4.3760307096       -1.3277042804        1.5162674502
 H         -2.4639899504        2.7612583304       -1.5030858992
 H         -4.2150795404        2.9963823102       -1.4776500090
 H         -3.3396337503        0.9227485805       -2.6840694694
 H         -4.6450230501        0.6472140302       -1.5392679794
 O         -1.6786558901       -0.3847192295       -1.7603939398
 C         -0.6659857499       -1.2437011594       -1.3715788801
 O          0.2406755300       -1.3888706792       -2.2118892702
 O         -1.9440060595       -2.0839785902        1.9031003099
 C          0.3191353104       -2.8031908796        0.3224249495
 C          1.6456379103       -2.0864705495        0.3897524895
 C          2.8258324103       -2.6133379693       -0.1189993407
 C          4.0128920403       -1.9106455192       -0.0050493607
 C          4.0492044802       -0.6752662693        0.6142511796
 C          2.8753828602       -0.1430282195        1.1361632398
 C          1.6892934803       -0.8494646696        1.0219724597
 H          0.7849069503       -0.4276382598        1.4361090699
 N          2.8802879501        1.0984516504        1.7974912100
 S          1.7041618400        2.2274251103        1.4322526303
 O          2.2319138599        3.4706545703        1.9537662705
 O          0.4265712101        1.8151121201        1.9549356104
 C          1.6613621198        2.2934501206       -0.3471918597
 C          2.7859607497        2.7342502809       -1.0175937697
 C          2.7719587195        2.7581985211       -2.4020212297
 C          1.6405659095        2.3431270611       -3.0885892696
 C          0.5179456196        1.9111318209       -2.4012381396
 C          0.5292259298        1.8827931906       -1.0161849796
 H         -0.3182872501        1.5442755704       -0.4411844596
 H         -0.3577478604        1.5732401909       -2.9317942896
 H          1.6310835394        2.3548016613       -4.1670095896
 H          3.6415589695        3.0960217913       -2.9424848497
 H          3.6420825897        3.0630848309       -0.4511126097
 H          3.7890381901        1.5363862604        1.8481079500
 H          4.9754413202       -0.1283160292        0.7022203696
 H          4.9218272703       -2.3299373390       -0.4085268608
 H          2.8165910904       -3.5741037392       -0.6064272209
 H          0.0465558105       -3.1023940599        1.3461944995
 C          0.3346344404       -4.0354785895       -0.5576357707
 C          0.7921060706       -5.3524478195       -0.0076260710
 C         -0.6608315694       -5.1237929796       -0.2932725608
 H         -1.1094544994       -5.6288196095       -1.1354667709
 H         -1.3329370093       -4.9876915099        0.5417162593
 H          1.3404118407       -6.0196685993       -0.6554325812
 H          1.1058505107       -5.3816635297        1.0249390289
 H          0.5589659603       -3.8042541193       -1.5927159007
