  62
        -98.93810858
 C          2.2428941212       -0.9498256627       -0.3148463642
 C          2.4098034340       -0.0318643644        0.7479134712
 C          3.2510874978        1.1459177175        0.4651845755
 C          3.7757116806        1.2962646139       -0.7633474682
 C          4.6987153270        2.3847495647       -1.2370438719
 C          6.1674629307        1.9507798913       -1.0934117057
 C          6.7945342822        2.2410463859        0.2696544470
 H          7.7805475134        1.7708996352        0.2796756173
 H          6.9443446992        3.3178009733        0.3730530670
 C          5.9985421725        1.7397851615        1.4775706247
 H          5.6193044159        0.7359469458        1.2778275565
 H          6.6859788366        1.6630749645        2.3221700874
 C          4.8388995705        2.6696139845        1.8646600586
 H          4.8975825876        2.8949676840        2.9314234122
 H          4.9546291116        3.6188468562        1.3417242468
 C          3.4326658744        2.1068232098        1.6083378383
 H          3.0954582526        1.5520512498        2.4895339029
 H          2.7328073735        2.9390638814        1.4785611397
 H          6.7600029414        2.4630218840       -1.8541753557
 H          6.2220753452        0.8795301997       -1.3039484306
 H          4.4830897488        2.5374306350       -2.2967186007
 H          4.5082420433        3.3111612243       -0.7034353428
 O          3.5607182069        0.4022413424       -1.7691094721
 C          2.7976677823       -0.7345297064       -1.5747494430
 O          2.6792211782       -1.4575442959       -2.5861924106
 H         -0.1053366010       -0.3128363491       -1.2182572003
 C         -0.6401902459       -0.8134293311       -0.4192101124
 C         -0.0033099930       -1.8272844652        0.2860168253
 C         -0.7076453745       -2.4733133659        1.2932226349
 C         -2.0036614153       -2.0928837837        1.5967244738
 C         -2.6245874511       -1.0683637710        0.9070205800
 C         -1.9355752298       -0.4258183521       -0.1135588494
 N         -2.5524154707        0.6243967200       -0.8158551777
 S         -4.0928490993        0.3730624638       -1.4350568469
 O         -4.3184637859       -1.0202043541       -1.7427972047
 O         -4.2131760490        1.3025639964       -2.5371830175
 C         -5.1715466027        0.8922467327       -0.1173223328
 C         -5.0116564058        2.1674154561        0.3885100801
 C         -5.8457829851        2.5909714122        1.4106686564
 C         -6.8219216286        1.7382963472        1.9046778346
 C         -6.9721814297        0.4624463953        1.3833396227
 C         -6.1403105087        0.0320691805        0.3612569730
 H         -6.2160324545       -0.9530186606       -0.0708813469
 H         -7.7317508422       -0.1985283860        1.7686418600
 H         -7.4690773789        2.0705977350        2.7009322532
 H         -5.7315234547        3.5823944556        1.8185547083
 H         -4.2429074020        2.7989813656       -0.0247527952
 H         -1.9562667160        1.0536266060       -1.5084647352
 H         -3.6304275887       -0.7646362867        1.1463190787
 H         -2.5363857629       -2.5991416776        2.3871018635
 H         -0.2406015955       -3.2725350855        1.8446607088
 C          1.4061630968       -2.1988234363       -0.1094133167
 H          1.3601966562       -2.6984233200       -1.0889952403
 C          2.0874227945       -3.1242961773        0.8776385466
 C          1.9153600608       -4.6085647098        0.7678046536
 C          3.2230558720       -3.9764584000        0.3995044614
 H          4.0707070805       -4.1215717214        1.0522649730
 H          3.4848832892       -3.9102759294       -0.6469690915
 H          1.8685552837       -5.1912603971        1.6753888574
 H          1.2919769950       -4.9826308685       -0.0303818572
 H          2.1708982555       -2.6873996856        1.8659715282
 O          1.8870505307       -0.1866148252        1.8818859084
