  62
        -98.93678247
 C         -2.4190882381       -1.2465879336        0.0969390922
 C         -2.2917042887        0.0393610317       -0.4838745753
 C         -3.5520344369        0.6922713463       -0.8763444939
 C         -4.7214817403        0.0639155366       -0.6625412373
 C         -6.0748707201        0.6386225032       -0.9629516710
 C         -6.6409012605        1.3896238868        0.2505214150
 C         -5.6596945644        2.3801119355        0.8775564357
 H         -4.8202010483        1.8282796532        1.3067970669
 H         -6.1775473683        2.8714164513        1.7040816180
 C         -5.1223402026        3.4419472708       -0.0919789343
 H         -5.1536752147        4.4153035249        0.4019831737
 H         -5.7669832366        3.5028486207       -0.9695046691
 C         -3.6770897917        3.2178228232       -0.5410662507
 H         -3.0391290600        3.0619694338        0.3328231295
 H         -3.3304246416        4.1267539872       -1.0401277624
 C         -3.4532793626        2.0509416908       -1.5111926789
 H         -2.4310200059        2.1294892001       -1.8938127801
 H         -4.1426827664        2.1342811379       -2.3540404530
 H         -6.9201837449        0.6569511628        1.0110986821
 H         -7.5439292404        1.9173976601       -0.0612386335
 H         -5.9970003201        1.3099249947       -1.8159007244
 H         -6.7476950503       -0.1819696430       -1.2174881098
 O         -4.8050337434       -1.1638836417       -0.0892857649
 C         -3.6657443357       -1.8383067988        0.3178084432
 O         -3.8905024264       -2.9373543684        0.8621554290
 H          1.4224092615       -1.3961904068       -0.0450832118
 C          1.0595835695       -0.9224746980        0.8507075123
 C         -0.2406240157       -1.1309536129        1.2824233892
 C         -0.6760144229       -0.4790879951        2.4335177093
 C          0.1626092773        0.3771288513        3.1193046549
 C          1.4542086595        0.5968917029        2.6749742039
 C          1.9042026802       -0.0600839223        1.5355088768
 N          3.2318992630        0.1142066395        1.1063475545
 S          3.6602493031        0.0045673784       -0.5201119193
 O          2.9410175508        0.9739851483       -1.3149858736
 O          3.5680787811       -1.3712326061       -0.9393455592
 C          5.3768349288        0.4760249013       -0.3953181371
 C          5.7425603328        1.7835215046       -0.6535467953
 C          7.0744156803        2.1458364212       -0.5265773133
 C          8.0131121070        1.2000239053       -0.1428620173
 C          7.6316211934       -0.1090078562        0.1115333858
 C          6.3017560384       -0.4775788850       -0.0147349657
 H          5.9601299342       -1.4837565305        0.1634170553
 H          8.3647945338       -0.8423766050        0.4062503872
 H          9.0488784115        1.4843146982       -0.0446356978
 H          7.3740860741        3.1618357800       -0.7274410066
 H          4.9798485601        2.4819718003       -0.9589923635
 H          3.6690509383        0.9222136970        1.5287837158
 H          2.1078961137        1.2730832722        3.2049908147
 H         -0.1928903336        0.8846060460        4.0037863909
 H         -1.6907145355       -0.6424119421        2.7726955164
 C         -1.2073883732       -2.0374107497        0.5601443157
 H         -1.6020801216       -2.7604872362        1.2939787467
 C         -0.5466623684       -2.8543300242       -0.5402311790
 C         -1.3300726125       -3.3715064667       -1.7084488539
 C         -0.3033300011       -2.2996950770       -1.9102809183
 H          0.6233565996       -2.5518397129       -2.4062638079
 H         -0.6356726548       -1.2924203649       -2.1076394284
 H         -2.3735703080       -3.0990168062       -1.7730844448
 H         -1.1149284819       -4.3662696976       -2.0684868703
 H          0.2180331833       -3.5179514927       -0.1468148778
 O         -1.1941130060        0.6267619957       -0.6693454170
