  62
        -98.94607047
 C          1.4122454623        0.8355644355       -0.0996496436
 C          2.4992704305        0.8631114519        0.8127390237
 C          3.4693767071       -0.2336110818        0.7169491312
 C          3.2685926817       -1.2054346763       -0.1912991229
 C          4.1925214819       -2.3643258827       -0.4280162142
 C          5.2335653155       -2.0362055878       -1.5073535317
 C          5.9437021543       -0.6995056332       -1.2929660364
 H          6.6752640202       -0.5875209776       -2.0960578366
 H          5.2183092449        0.1097511985       -1.4027860101
 C          6.6490128814       -0.5661405647        0.0639338434
 H          7.6413913655       -0.1400990119       -0.0977378464
 H          6.7883515283       -1.5527055901        0.5073643242
 C          5.9320656544        0.3418722054        1.0649027259
 H          5.7055058468        1.3008864296        0.5924226522
 H          6.6156716876        0.5392460530        1.8949051568
 C          4.6356044727       -0.2171916258        1.6647983422
 H          4.8169145686       -1.2156541556        2.0685869727
 H          4.3405562534        0.4381856503        2.4896020773
 H          5.9692841508       -2.8421426147       -1.5331233105
 H          4.7289685686       -2.0054008397       -2.4758119660
 H          4.6893074231       -2.6209601736        0.5058956999
 H          3.5948642773       -3.2170165395       -0.7557794984
 O          2.2107217658       -1.2125919794       -1.0376207334
 C          1.2560302313       -0.2028366649       -1.0192782450
 O          0.3574531997       -0.3621422020       -1.8677196580
 O          2.6516420743        1.7768848003        1.6686007754
 C          0.4167429711        1.9741262353        0.0181326622
 C         -0.7067903076        1.6529695623        0.9784194778
 C         -1.2348427237        2.6464496310        1.7961876980
 C         -2.2769453981        2.3668046316        2.6605869544
 C         -2.8196397202        1.0958279124        2.7194330456
 C         -2.2969258832        0.0936366489        1.9100081551
 C         -1.2469651554        0.3781840109        1.0472576123
 H         -0.8411908912       -0.4148294804        0.4399984549
 N         -2.8113525948       -1.2090255976        1.9670462181
 S         -2.9349498085       -2.1370220876        0.5796837548
 O         -3.8965756298       -3.1609368518        0.9344459555
 O         -1.6358949695       -2.6110753133        0.1765560980
 C         -3.6558560199       -1.0427793757       -0.6296361678
 C         -2.9022482202       -0.5230057639       -1.6608880491
 C         -3.5052340516        0.3630687462       -2.5420854369
 C         -4.8357561491        0.7124401514       -2.3782256959
 C         -5.5803481007        0.1749683473       -1.3386236117
 C         -4.9861016382       -0.7091265034       -0.4545997413
 H         -5.5328329458       -1.1605487095        0.3573981117
 H         -6.6170104090        0.4436975807       -1.2151676119
 H         -5.2947856466        1.4047776262       -3.0662721411
 H         -2.9223009551        0.7757362544       -3.3505087038
 H         -1.8646257752       -0.8009755697       -1.7650426961
 H         -3.6210925337       -1.3190551115        2.5596318155
 H         -3.6313188466        0.8736193824        3.3948704435
 H         -2.6728750307        3.1450428948        3.2947106660
 H         -0.8115155085        3.6387197725        1.7634925343
 H          0.9848521717        2.8114166548        0.4481600568
 C         -0.1727219308        2.4247044259       -1.3050203839
 C         -0.5877737627        3.8525336317       -1.4870034613
 C          0.6216023241        3.3267546318       -2.1992304394
 H          0.5729261764        3.1652679404       -3.2653914720
 H          1.5952592231        3.6411696592       -1.8518697669
 H         -1.4758920223        4.0582017644       -2.0638929927
 H         -0.4288761173        4.5342735418       -0.6658288985
 H         -0.7749660534        1.6623185011       -1.7804761967
