  62
        -98.94121530
 C         -1.4830196218       -1.5840840236       -0.2114742813
 C         -2.6410095913       -1.2651242352        0.5391273652
 C         -3.4823295337       -0.1585869067        0.0447376023
 C         -3.1097950540        0.4829286446       -1.0780132261
 C         -3.7808095561        1.6537098862       -1.7456167492
 C         -3.5255690686        2.9876932406       -1.0214844165
 C         -3.5704362715        2.9141930196        0.5029492932
 H         -2.8651941054        2.1560227651        0.8487796421
 H         -3.2325216987        3.8778953711        0.8930630214
 C         -4.9491813346        2.6355929161        1.0969647276
 H         -4.8469151408        2.6559062169        2.1849713350
 H         -5.6301449137        3.4413700313        0.8128513907
 C         -5.5896109811        1.3042357012        0.7028427641
 H         -5.9607984890        1.3386697334       -0.3178440349
 H         -6.4633023095        1.1605951325        1.3455410020
 C         -4.6991258086        0.0818223110        0.9047298400
 H         -4.3400336532        0.0688939633        1.9399519104
 H         -5.3172812973       -0.8186906517        0.8031398854
 H         -4.2573727840        3.7163424505       -1.3739923644
 H         -2.5339049645        3.3446878654       -1.3090230933
 H         -4.8455193508        1.4603582881       -1.8407893658
 H         -3.3670207570        1.7205405626       -2.7544197940
 O         -1.9839540103        0.1440750912       -1.7670947006
 C         -1.1447545774       -0.8801997218       -1.3659898505
 O         -0.1646212986       -1.0499061605       -2.1170393658
 O         -2.9648373024       -1.8796300135        1.5902499402
 C         -0.5809166193       -2.6912934088        0.3113162137
 C          0.6702497198       -2.0344393812        0.8383868542
 C          0.7002303106       -1.5560895067        2.1453737788
 C          1.7941734669       -0.8539751569        2.6170505106
 C          2.8697986877       -0.5894153022        1.7869816931
 C          2.8410620796       -1.0514834505        0.4780945929
 C          1.7614278711       -1.7918454150        0.0180755426
 H          1.7512238437       -2.1336657152       -1.0044933744
 N          3.8968134335       -0.7215207461       -0.3938119126
 S          4.3086827905        0.9026722085       -0.4382604863
 O          4.7734429091        1.1503905492       -1.7854741316
 O          5.2646538793        1.1772326561        0.6071133718
 C          2.8018096471        1.8062248163       -0.1124722981
 C          2.7724635997        2.7192501058        0.9225739375
 C          1.5981585553        3.4079101642        1.1795819495
 C          0.4749248553        3.1706634541        0.4025913868
 C          0.5222065653        2.2541059898       -0.6357669709
 C          1.6939993630        1.5639870304       -0.9000039265
 H          1.7330559543        0.8380507410       -1.6971330072
 H         -0.3487674704        2.0552558660       -1.2401794028
 H         -0.4435086871        3.6988581246        0.6061406177
 H          1.5599243821        4.1222113004        1.9861326818
 H          3.6661700841        2.8662552981        1.5070915073
 H          3.7576396634       -1.0721375031       -1.3311443558
 H          3.7226849522       -0.0239571179        2.1264043023
 H          1.8056776154       -0.4965263141        3.6352654203
 H         -0.1555206813       -1.7274256395        2.7828483477
 H         -1.1218340478       -3.1325165186        1.1585503084
 C         -0.3228073285       -3.7709799710       -0.7178181356
 C          0.2684030227       -5.0746188581       -0.2740403862
 C         -1.1649495807       -5.0100038383       -0.7058880138
 H         -1.4404817899       -5.4539592454       -1.6508399248
 H         -1.9310109694       -5.0873027264        0.0516374946
 H          0.9794699515       -5.5661754058       -0.9202911246
 H          0.4760537268       -5.1934641434        0.7786152715
 H         -0.0302425362       -3.3870067483       -1.6870681891
