  62
        -98.93651033
 C         -2.4863619689       -1.0772648456       -0.5647213112
 C         -3.6090642430       -0.8259933591        0.2679258768
 C         -4.3702047269        0.3985041372       -0.0071429499
 C         -3.9851358139        1.1943070979       -1.0209030843
 C         -4.6318948115        2.4991671941       -1.3825986742
 C         -3.9668095152        3.6717006594       -0.6479138725
 C         -3.8021168496        3.4462548341        0.8552055045
 H         -3.0944954704        2.6299717543        1.0188896175
 H         -3.3515100410        4.3496241223        1.2718866801
 C         -5.1097084227        3.1383169068        1.5981056613
 H         -5.9622731923        3.4417982329        0.9894797566
 H         -5.1389968027        3.7302318477        2.5152857256
 C         -5.2763350907        1.6738772989        2.0082133341
 H         -4.3817220843        1.3371017045        2.5383144064
 H         -6.1142564470        1.6096332678        2.7074328493
 C         -5.5579958777        0.6896886457        0.8659604664
 H         -5.8416434644       -0.2671461674        1.3138278584
 H         -6.3964876761        1.0509734420        0.2670333145
 H         -4.5638292086        4.5691487863       -0.8196848278
 H         -2.9766484414        3.8339353297       -1.0799475184
 H         -4.5265134774        2.6489229585       -2.4584052585
 H         -5.6903551342        2.4540648708       -1.1337657991
 O         -2.9181333199        0.9154359537       -1.8095261990
 C         -2.1329844801       -0.2123390562       -1.6007483689
 O         -1.1803746968       -0.3049322681       -2.3985482848
 H          0.2805820122       -0.5559083122       -0.6913498621
 C          0.4259890717       -1.1037125235        0.2288068352
 C         -0.5055896254       -2.0647175354        0.5980542090
 C         -0.3014330812       -2.7664334352        1.7798147358
 C          0.8078735086       -2.5110298858        2.5679411946
 C          1.7346798798       -1.5539684401        2.1954485297
 C          1.5399883532       -0.8482716826        1.0150248807
 N          2.4754578322        0.1389410683        0.6214627311
 S          4.0239989824       -0.4380217927        0.2543387286
 O          3.9817491956       -1.2541929348       -0.9407063849
 O          4.5689209561       -1.0671079195        1.4296596900
 C          4.8791667227        1.0898073038       -0.0689659979
 C          5.3165607339        1.8393760815        1.0060456238
 C          5.9578976249        3.0436962422        0.7652330294
 C          6.1484987924        3.4762136277       -0.5388671978
 C          5.7037038305        2.7124943053       -1.6073103183
 C          5.0599900020        1.5073160073       -1.3730896757
 H          4.7040657013        0.8781238731       -2.1735031341
 H          5.8547679555        3.0498766020       -2.6201640216
 H          6.6489733448        4.4134604549       -0.7243957576
 H          6.3066740361        3.6401744663        1.5927371849
 H          5.1534332418        1.4594582065        2.0008449214
 H          2.1375444038        0.6362904252       -0.1941425770
 H          2.6101514134       -1.3589581833        2.7921125972
 H          0.9527633276       -3.0631281049        3.4841984419
 H         -1.0240618930       -3.5099576618        2.0835321557
 C         -1.7010050813       -2.3450400783       -0.2761566965
 H         -2.3951187669       -2.9704974528        0.3072319675
 C         -1.3442931735       -3.1244738642       -1.5356888908
 C          0.0507281858       -3.3072545122       -2.0468328822
 C         -0.6727171752       -4.4614375046       -1.4244669375
 H         -1.0100169157       -5.2675379425       -2.0580469734
 H         -0.3530191048       -4.7742005286       -0.4415564679
 H          0.1933761441       -3.2973220980       -3.1169520104
 H          0.8706185796       -2.8629637550       -1.5031505476
 H         -2.1160634059       -3.0335021266       -2.2938704771
 O         -3.9617986254       -1.6007558537        1.1968050983
