  62
        -98.93385748
 C         -1.9754768842       -0.4264531170       -0.1304272789
 C         -3.0684705435       -1.1866407306        0.3606586321
 C         -4.3016633848       -0.4470241587        0.6661357404
 C         -4.3142616844        0.8896090956        0.5174622503
 C         -5.5084038490        1.7792112208        0.7167010240
 C         -6.4530175654        1.6742088735       -0.4976983507
 C         -7.8155194313        1.0548579261       -0.1854536829
 H         -8.4290816797        1.7925087110        0.3360828388
 H         -8.3017702278        0.8372324481       -1.1388619884
 C         -7.7914106904       -0.2192187752        0.6645602461
 H         -7.6622392288        0.0433560742        1.7156261495
 H         -8.7788289870       -0.6776185779        0.5777207837
 C         -6.7301177389       -1.2599456100        0.2847040068
 H         -6.4375880370       -1.1468208994       -0.7595244912
 H         -7.1764961054       -2.2515067409        0.3837394363
 C         -5.4715705906       -1.2447347814        1.1723456712
 H         -5.7379319053       -0.9047303247        2.1770045254
 H         -5.0943449792       -2.2677949385        1.2619837614
 H         -6.6176812789        2.6678255361       -0.9173727182
 H         -5.9534762373        1.0865606786       -1.2708874409
 H         -6.0271486035        1.4991548598        1.6309288534
 H         -5.1386038736        2.7992665429        0.8236217992
 O         -3.2347558716        1.5907147676        0.0888593722
 C         -2.0399757834        0.9629350364       -0.2480651426
 O         -1.1541792696        1.7511133343       -0.6252892248
 O         -3.0128494687       -2.4327545928        0.5388134332
 C         -0.6970029263       -1.1814241650       -0.4534490045
 C          0.4775589403       -0.5219755712        0.2213984477
 C          0.6495124314       -0.6861309169        1.5927370941
 C          1.6962589001       -0.0710551142        2.2533350720
 C          2.5931713236        0.7222709115        1.5601339890
 C          2.4298722486        0.8920560953        0.1916744628
 C          1.3867094896        0.2602418646       -0.4729172308
 H          1.2581118120        0.4175771407       -1.5322840948
 N          3.3341547697        1.6990997272       -0.5156055017
 S          4.9655300807        1.5452768925       -0.1974884761
 O          5.3056930507        2.2740785238        0.9994486427
 O          5.6309294473        1.9754306077       -1.4074182905
 C          5.2211406487       -0.2009585969        0.0681860614
 C          4.9209964089       -1.0658983088       -0.9657719527
 C          5.0805934144       -2.4275476076       -0.7685868276
 C          5.5343955277       -2.8994819966        0.4538508303
 C          5.8357986246       -2.0183938940        1.4802761710
 C          5.6764688039       -0.6550467150        1.2888509122
 H          5.8973573373        0.0644664829        2.0603675668
 H          6.1906660879       -2.3879660531        2.4288204247
 H          5.6544516154       -3.9605636834        0.6055266145
 H          4.8483225362       -3.1153070687       -1.5658145502
 H          4.5768511250       -0.6656423714       -1.9058520410
 H          3.1401981401        1.7773627322       -1.5021608064
 H          3.4029390810        1.2278389758        2.0608359366
 H          1.8135704972       -0.2044184638        3.3180346499
 H         -0.0580893030       -1.2955800538        2.1378581045
 H         -0.8450619404       -2.1689678442        0.0127219443
 C         -0.4685871242       -1.4369303073       -1.9357914658
 C         -1.6242833147       -1.7246248031       -2.8456501206
 C         -0.8422908959       -0.4570180688       -3.0058401810
 H         -0.1906608874       -0.3647099546       -3.8630761119
 H         -1.2971740606        0.4734732356       -2.7046377736
 H         -1.5154559197       -2.4971469567       -3.5918097709
 H         -2.6164711377       -1.6614305695       -2.4229155340
 H          0.4336833520       -2.0168967575       -2.1056349772
