  62
        -98.93905396
 C         -2.3620664215       -0.6302002929        0.1212127632
 C         -2.6598544725        0.7588035699        0.1213012554
 C         -3.9478044069        1.1561476499       -0.4600448094
 C         -4.7563840342        0.2084657737       -0.9676982900
 C         -6.1185557873        0.4584587249       -1.5455739527
 C         -7.2088413288        0.3371304701       -0.4717079992
 C         -6.9099440413        1.1262966390        0.8028886931
 H         -7.7592839996        0.9914129616        1.4760738154
 H         -6.0374429286        0.6910180754        1.2955730015
 C         -6.6682872572        2.6256092090        0.5789296761
 H         -7.0578984275        2.9225970615       -0.3953762651
 H         -7.2222905530        3.1864288711        1.3346084621
 C         -5.2043180596        3.0558161259        0.6906119377
 H         -4.7810569518        2.6787085484        1.6251791287
 H         -5.1727688459        4.1477618388        0.7354335429
 C         -4.2901399553        2.6195140279       -0.4615046659
 H         -4.7361045039        2.9094135324       -1.4151571084
 H         -3.3394317135        3.1494885354       -0.3511808548
 H         -7.3156415429       -0.7165839825       -0.2044092147
 H         -8.1537178306        0.6772713074       -0.8992672333
 H         -6.3030450184       -0.2839056558       -2.3237286604
 H         -6.1407190710        1.4512326763       -1.9907103874
 O         -4.4347038823       -1.1076359082       -0.9664078707
 C         -3.2429372839       -1.5659413131       -0.4225192087
 O         -3.1146397531       -2.8038084893       -0.4970162804
 O         -1.8808136459        1.6299771591        0.5955595701
 C         -1.0368432187       -1.0366453889        0.7408981792
 C          0.0382179773       -1.2684993002       -0.2947181296
 C         -0.0825715990       -2.2572156085       -1.2659869716
 C          0.9391439679       -2.4742450358       -2.1720430172
 C          2.1052601486       -1.7313847144       -2.1144409539
 C          2.2332170685       -0.7381384430       -1.1509572705
 C          1.1967641442       -0.5067039745       -0.2573257767
 H          1.3068639576        0.2773129238        0.4780380698
 N          3.3966022652        0.0436383493       -1.0721462087
 S          3.9367866377        0.5046259509        0.4607223107
 O          3.7944608112       -0.5968843426        1.3856161908
 O          3.2893069050        1.7377192009        0.8324180496
 C          5.6608974870        0.8078777343        0.1214713344
 C          6.5821985006       -0.1943325600        0.3607971652
 C          7.9167039738        0.0379341845        0.0671398596
 C          8.3046153968        1.2603556854       -0.4605564555
 C          7.3684046128        2.2566526638       -0.6949210777
 C          6.0324787572        2.0314608498       -0.4030026482
 H          5.2710119323        2.7778848081       -0.5590700255
 H          7.6742440446        3.2067523022       -1.1023052388
 H          9.3436741421        1.4390141689       -0.6878220759
 H          8.6470634467       -0.7334293246        0.2510180308
 H          6.2356933784       -1.1248798973        0.7809416265
 H          4.1489863646       -0.3105443906       -1.6468984226
 H          2.9077529858       -1.9144092540       -2.8129164152
 H          0.8323301672       -3.2425662404       -2.9230074269
 H         -0.9838582748       -2.8492424080       -1.3027844732
 H         -0.7244424896       -0.1711137064        1.3422279226
 C         -1.1305372821       -2.2430426449        1.6571540651
 C          0.0010124412       -2.5157874077        2.6010423107
 C         -1.3183398092       -2.0391984773        3.1287610055
 H         -1.9398816722       -2.7364558446        3.6703329430
 H         -1.3852230091       -1.0226143400        3.4889132458
 H          0.2848083969       -3.5416502145        2.7794979102
 H          0.8339183828       -1.8269235160        2.5980997277
 H         -1.6228190176       -3.0920962910        1.2013425492
