  62
        -98.93599941
 C         -2.5774661121       -1.2686914349        0.1943623012
 C         -2.5656776810       -0.1909127425       -0.7258842183
 C         -3.8814793920        0.3739471583       -1.0603163411
 C         -4.9970158251       -0.1436177630       -0.5170229149
 C         -6.4071596025        0.3083756301       -0.7832703514
 C         -6.8488917712        1.5046878824        0.0707426862
 C         -6.2205047939        2.8449863362       -0.3131006348
 H         -6.3578565833        3.0169003148       -1.3810855999
 H         -6.7755998932        3.6221862467        0.2159462365
 C         -4.7325703726        2.9722058752        0.0435580455
 H         -4.4646628894        2.2041876396        0.7730848485
 H         -4.5528726164        3.9388510127        0.5195682591
 C         -3.7826325508        2.8723104452       -1.1501727944
 H         -3.9482373948        3.7179153501       -1.8214800140
 H         -2.7566167954        2.9331907626       -0.7773642441
 C         -3.9167307369        1.5742761678       -1.9571310491
 H         -4.8357814567        1.5874462476       -2.5426163043
 H         -3.0655745012        1.5064026244       -2.6389693317
 H         -6.6288682826        1.2860435469        1.1183438902
 H         -7.9330866843        1.5938063307       -0.0291877172
 H         -6.5211204950        0.5519014324       -1.8398736738
 H         -7.0549004447       -0.5392386620       -0.5491311084
 O         -4.9666593909       -1.1848259844        0.3573888580
 C         -3.7640421828       -1.7422026641        0.7605460291
 O         -3.8817167885       -2.6429757678        1.6157505264
 H          1.1653249929       -1.3544728278       -0.4523074515
 C          0.9216434288       -0.7025528810        0.3722320317
 C         -0.2861225880       -0.8507892097        1.0338771779
 C         -0.5847247090        0.0222022874        2.0766288791
 C          0.2969831126        1.0226913331        2.4368247280
 C          1.4976166735        1.1750841489        1.7659610772
 C          1.8063146984        0.3094355118        0.7262182683
 N          3.0149249174        0.4715810945        0.0235918153
 S          4.4125943400        0.7171698361        0.9385040168
 O          4.4713211506       -0.2415300932        2.0202917930
 O          4.4737789871        2.1042150996        1.3257482294
 C          5.6757417589        0.3707279509       -0.2698369474
 C          6.2355027330       -0.8918741985       -0.3203043548
 C          7.1984238584       -1.1600588620       -1.2804267346
 C          7.5806859800       -0.1675739291       -2.1704591363
 C          7.0095126675        1.0948840964       -2.1073017617
 C          6.0469102898        1.3701224668       -1.1492123735
 H          5.5820219457        2.3377875510       -1.0571974798
 H          7.3116573504        1.8644920510       -2.7992358426
 H          8.3309205572       -0.3785886580       -2.9160691186
 H          7.6462011281       -2.1395770017       -1.3304444246
 H          5.9146624372       -1.6299477493        0.3974543495
 H          3.1543757096       -0.2581627854       -0.6620455317
 H          2.1966962313        1.9500996884        2.0362608988
 H          0.0489965004        1.6931777990        3.2465151792
 H         -1.5260336130       -0.0916238551        2.5985845739
 C         -1.2931583582       -1.9184401685        0.6816086916
 H         -1.5733651741       -2.4316116180        1.6166113043
 C         -0.7411966633       -2.9901723160       -0.2463244420
 C         -1.6604037782       -3.8248766494       -1.0860229680
 C         -0.7353438154       -2.8432805701       -1.7372303125
 H          0.1118537980       -3.2289451126       -2.2858914360
 H         -1.1499166691       -1.9385723663       -2.1522138447
 H         -2.7150679423       -3.5931786120       -1.0522330677
 H         -1.4488002918       -4.8789835108       -1.1848133762
 H          0.1044744400       -3.5075528896        0.1974384855
 O         -1.5266262684        0.2816387692       -1.2526939188
