  62
        -98.94612589
 C         -1.5221260764       -1.0959769393        0.1898895718
 C         -2.5417277872       -0.6190244415        1.0503061267
 C         -3.0550819223        0.7237862272        0.7622839271
 C         -2.4987205227        1.4520407506       -0.2223275915
 C         -2.8850395263        2.8524531333       -0.6142988708
 C         -4.0833802370        2.9272706712       -1.5707193318
 C         -5.4396316509        2.6095405267       -0.9396020668
 H         -5.5741903812        3.2197773977       -0.0460004558
 H         -6.2052897624        2.9092349852       -1.6578515419
 C         -5.6438486019        1.1289054836       -0.5896134516
 H         -4.9067813227        0.5244824825       -1.1234042351
 H         -6.6300634149        0.8061576314       -0.9304344623
 C         -5.5547730519        0.8123491733        0.9033984427
 H         -5.6794793855       -0.2657482752        1.0339719412
 H         -6.3687101782        1.3118216897        1.4333053293
 C         -4.2264570236        1.2172505602        1.5566775484
 H         -4.1773840441        2.2998708911        1.6742246731
 H         -4.1737402209        0.7563311690        2.5463249336
 H         -3.9035159675        2.2500943395       -2.4088383682
 H         -4.1199523707        3.9446621653       -1.9668269487
 H         -2.0141850760        3.2847880876       -1.1121776391
 H         -3.0936048616        3.4371738416        0.2823505377
 O         -1.4769521586        0.9863965170       -0.9847829710
 C         -0.9656939197       -0.2899783328       -0.8035866427
 O         -0.0378101195       -0.5738947204       -1.5854042550
 O         -2.9968790021       -1.2849536932        2.0197788791
 C         -0.9591968381       -2.4804720762        0.4574610624
 C          0.5481588628       -2.4288813054        0.4462024411
 C          1.3520380617       -3.2859476243       -0.2937621455
 C          2.7304426502       -3.1565654682       -0.2648476044
 C          3.3330375926       -2.1582313431        0.4773994064
 C          2.5360553317       -1.2950360137        1.2205570081
 C          1.1617425087       -1.4545425857        1.2252765660
 H          0.5577775991       -0.7729939048        1.8077285518
 N          3.0906758728       -0.2293666196        1.9645879927
 S          2.7515980733        1.3112281365        1.3904369132
 O          3.4356965491        2.2114821995        2.2950815398
 O          1.3274478446        1.4875549047        1.2710021698
 C          3.5520103992        1.3626447887       -0.2036318225
 C          2.9437191296        0.7649212280       -1.2892323053
 C          3.6226301147        0.7404338841       -2.4988829971
 C          4.8841757656        1.3052147335       -2.6018340918
 C          5.4794696838        1.9024069400       -1.5004730781
 C          4.8112145984        1.9268580404       -0.2876052728
 H          5.2313389152        2.3804618911        0.5956591519
 H          6.4595899332        2.3439818364       -1.5822651624
 H          5.4048486194        1.2803179134       -3.5461353822
 H          3.1529079809        0.2741317580       -3.3500677477
 H          1.9580332559        0.3354063568       -1.1922706901
 H          4.0900545350       -0.3103518833        2.0996543757
 H          4.4061878609       -2.0388414003        0.4778700003
 H          3.3414921723       -3.8295160978       -0.8466692265
 H          0.9007915409       -4.0442804549       -0.9120990545
 H         -1.2807788180       -2.7088329088        1.4883547718
 C         -1.5386879121       -3.5728548087       -0.4296377046
 C         -2.8758034953       -3.4074296965       -1.0862259792
 C         -1.6300931948       -3.4213227172       -1.9175834886
 H         -1.4377314525       -4.2866834463       -2.5347099920
 H         -1.2845058795       -2.4925659084       -2.3434097457
 H         -3.5352620126       -4.2614167864       -1.1272923865
 H         -3.3890688604       -2.4666907097       -0.9476419898
 H         -1.3138333921       -4.5657447725       -0.0526249656
