  62
        -98.93745640
 C         -2.4099750570       -1.1535876499       -0.0056344867
 C         -3.3594721572       -0.6085071721        0.8962110467
 C         -4.3249412685        0.3709493812        0.3638658498
 C         -4.2711192286        0.6804706525       -0.9445798884
 C         -5.1153943047        1.6647591406       -1.7094221892
 C         -4.7101144618        3.1235396473       -1.4446030710
 C         -4.4543082163        3.4625170717        0.0215343407
 H         -3.6665699245        2.8128788967        0.4075559894
 H         -4.0778786435        4.4880124226        0.0637598571
 C         -5.6767120478        3.3760987613        0.9323748631
 H         -5.3715469664        3.7361947523        1.9181600436
 H         -6.4505880571        4.0499881989        0.5581713248
 C         -6.2867684280        1.9832414608        1.1054738257
 H         -6.8895357842        1.7076778846        0.2442576075
 H         -6.9696615903        2.0315215377        1.9586807219
 C         -5.2793001567        0.8809334176        1.4165360234
 H         -4.6574706346        1.1907827823        2.2641195573
 H         -5.8256343748       -0.0019521413        1.7696256032
 H         -3.7893810268        3.3239185369       -1.9980993240
 H         -5.4904814873        3.7752474796       -1.8411762193
 H         -4.9650394851        1.4488590358       -2.7695925319
 H         -6.1664537208        1.5082149727       -1.4859226607
 O         -3.3505074206        0.1229931816       -1.7797059473
 C         -2.4023039646       -0.7869008882       -1.3504288284
 O         -1.6402362563       -1.1723387459       -2.2620103759
 H          0.2834392065       -1.0026942654       -1.1883404720
 C          0.6755519593       -0.9890077309       -0.1819843076
 C         -0.0798925318       -1.5298592389        0.8486273220
 C          0.4385306304       -1.5008373157        2.1379539549
 C          1.6801162119       -0.9417946073        2.3852715507
 C          2.4256638993       -0.3951168369        1.3562793214
 C          1.9161218180       -0.4175647040        0.0643922802
 N          2.6469996518        0.1624366630       -0.9859643456
 S          4.2702077413       -0.2246918783       -1.1519097896
 O          4.5818699901        0.0291136896       -2.5414614613
 O          4.5529092613       -1.5545413204       -0.6630595588
 C          5.1006891287        0.9847206128       -0.1421818331
 C          6.0064834236        0.5769821017        0.8174336444
 C          6.6483321641        1.5372375153        1.5841563245
 C          6.3752594342        2.8807462848        1.3779909319
 C          5.4648126596        3.2739072549        0.4081999818
 C          4.8208407407        2.3191746224       -0.3624430770
 H          4.1087693689        2.5826812983       -1.1267804755
 H          5.2544149705        4.3195818283        0.2509382604
 H          6.8744844406        3.6262482949        1.9765789221
 H          7.3564196019        1.2337051440        2.3383939621
 H          6.1819904520       -0.4791120662        0.9466817149
 H          2.1715110603        0.1206200791       -1.8760110325
 H          3.3917964660        0.0442195239        1.5434192224
 H          2.0707391963       -0.9272905601        3.3912778660
 H         -0.1439187428       -1.9115170948        2.9496994509
 C         -1.4254283447       -2.1574123237        0.5696503663
 H         -1.8578692764       -2.4587098756        1.5332426018
 C         -1.2632492660       -3.3969332151       -0.2893485103
 C         -0.7697300589       -4.6611770512        0.3449132715
 C         -2.1977023504       -4.5517155578       -0.0971661947
 H         -2.5155645550       -5.1065455992       -0.9671209312
 H         -2.9604296343       -4.4555414851        0.6618370826
 H         -0.1015669585       -5.2930655861       -0.2199447473
 H         -0.5646595059       -4.6418598109        1.4045218724
 H         -0.9414529645       -3.1819403989       -1.3002835210
 O         -3.4039449687       -0.9286961754        2.1144549344
