  62
        -98.94621394
 C         -1.1239865472       -1.2847975511       -0.0503463917
 C         -1.6216137470       -0.4150568375        0.9536485920
 C         -2.4264887639        0.7213212826        0.4940999089
 C         -2.6261080883        0.9033551725       -0.8237175866
 C         -3.3801102057        2.0421643675       -1.4552453466
 C         -4.8993111945        1.8320286001       -1.5149763125
 C         -5.6235201478        1.9453057040       -0.1727789766
 H         -5.3484598464        2.8847971319        0.3075847079
 H         -6.6926877241        1.9903388730       -0.3891892935
 C         -5.3618709890        0.7765843572        0.7873907230
 H         -6.3079172064        0.4400268575        1.2172669532
 H         -4.9464184461       -0.0657341509        0.2293033821
 C         -4.4278089808        1.1091692248        1.9507130864
 H         -4.8931601351        1.8630889542        2.5892805474
 H         -4.2869281556        0.2032646735        2.5455450705
 C         -3.0431883780        1.6167131513        1.5262367016
 H         -3.1130521483        2.6376666076        1.1511826896
 H         -2.3945949279        1.6104667597        2.4052024386
 H         -5.0984966328        0.8527621717       -1.9566077231
 H         -5.3060189957        2.5890885885       -2.1895229945
 H         -3.1587614523        2.9669872944       -0.9210359071
 H         -3.0009619810        2.1346150997       -2.4757635405
 O         -2.1297696857        0.0538973131       -1.7593595153
 C         -1.3750535975       -1.0593586560       -1.4059484954
 O         -1.0094629949       -1.7399511717       -2.3837450560
 H          1.0720149147       -0.7100837462       -1.2377347743
 C          1.7227154745       -1.2145494975       -0.5414476933
 C          1.2117813391       -2.1382633286        0.3557694976
 C          2.0958758913       -2.7880664890        1.2123826895
 C          3.4505362166       -2.5172703673        1.1673996268
 C          3.9506847125       -1.5694992094        0.2912440531
 C          3.0772376833       -0.9114211367       -0.5646033600
 N          3.5339248384        0.0829669305       -1.4491821279
 S          2.7212804355        1.5490647847       -1.4582240633
 O          1.4558403277        1.4286790661       -2.1354196842
 O          3.6669121288        2.4793580174       -2.0375968119
 C          2.4805160911        1.9139170528        0.2698077613
 C          1.2807713481        1.5948446506        0.8710548056
 C          1.1452475253        1.7742740256        2.2384400699
 C          2.2045972225        2.2801480181        2.9752055081
 C          3.3994110652        2.6134638125        2.3541430779
 C          3.5455373479        2.4194667382        0.9905200368
 H          4.4568464639        2.6635893159        0.4689635037
 H          4.2180301920        3.0135871205        2.9302729168
 H          2.0949748398        2.4152941523        4.0395915901
 H          0.2185256289        1.4915404287        2.7129849534
 H          0.4709205467        1.2085622216        0.2718457253
 H          4.5319175631        0.2378185119       -1.4152174743
 H          5.0048561131       -1.3398408947        0.2688879146
 H          4.1237830369       -3.0336635604        1.8340156810
 H          1.7129276502       -3.5059271701        1.9209207996
 C         -0.2690825882       -2.4448706133        0.4193173739
 H         -0.5268143567       -2.5823972685        1.4795550644
 C         -0.5578739369       -3.7419198496       -0.3142733513
 C         -0.4646055677       -5.0524302560        0.4054845526
 C         -1.8039161362       -4.5081347183        0.0110567718
 H         -2.3435540234       -4.9777896434       -0.7973534540
 H         -2.4419087928       -4.1122915843        0.7880989660
 H         -0.0773510600       -5.9047250494       -0.1312207017
 H         -0.2108021330       -5.0390530813        1.4542200283
 H         -0.2544218543       -3.7143227417       -1.3534508297
 O         -1.3965773409       -0.5788700706        2.1829677036
