  62
        -98.94073742
 C         -2.3064441515       -1.0482267599       -0.0322630235
 C         -2.0347894355        0.2335821531       -0.5694880272
 C         -2.7339932603        1.3567230329        0.0692041519
 C         -3.5297708468        1.1423498172        1.1314247367
 C         -4.2799115742        2.1906318507        1.9072511974
 C         -5.6265880978        2.5851153189        1.2849912109
 C         -5.5344197799        3.4312180097        0.0145033093
 H         -6.5361944082        3.8160142021       -0.1863641386
 H         -4.8866742608        4.2891271108        0.1974382836
 C         -5.0426559669        2.6661158297       -1.2220905181
 H         -5.1332807006        1.5919502985       -1.0453449107
 H         -5.6808833732        2.9051894086       -2.0756468833
 C         -3.6035412473        2.9797757697       -1.6310855070
 H         -3.5293409809        4.0252648047       -1.9383001105
 H         -3.3480994315        2.3561071149       -2.4914085131
 C         -2.5649015884        2.7196616634       -0.5322010133
 H         -1.5692185402        2.7635408310       -0.9804173081
 H         -2.6323359379        3.4857915215        0.2399443018
 H         -6.1942171595        1.6752612845        1.0768092979
 H         -6.1769693970        3.1553907842        2.0368215425
 H         -4.4679017760        1.7678504848        2.8966100768
 H         -3.6556757728        3.0773315436        2.0227885254
 O         -3.7319002224       -0.0983244123        1.6485793981
 C         -3.1465798926       -1.2125096928        1.0746091360
 O         -3.4473374897       -2.2874051012        1.6319845094
 H          0.4757121120       -0.8087844200       -1.1137551191
 C          0.7132226825       -1.6115509591       -0.4311679089
 C         -0.2867861412       -2.4951612619       -0.0509543130
 C          0.0273432513       -3.5031091174        0.8527444411
 C          1.3098081772       -3.6194860936        1.3605108144
 C          2.3032069916       -2.7339264597        0.9817248113
 C          1.9951744474       -1.7184558304        0.0862518999
 N          2.9953856532       -0.7933067942       -0.3021254415
 S          3.5616155813        0.1987833851        0.9461181832
 O          4.2198631966       -0.6297240986        1.9239641154
 O          2.4942975445        1.0418381939        1.4444533330
 C          4.7667867746        1.1766166922        0.0709958613
 C          6.0127382367        0.6295758537       -0.1684696894
 C          6.9444425510        1.3716119008       -0.8764214100
 C          6.6161387897        2.6402560915       -1.3311558046
 C          5.3613968116        3.1756863571       -1.0826874699
 C          4.4240800817        2.4376754494       -0.3767151459
 H          3.4386944036        2.8162835799       -0.1550006660
 H          5.1086119961        4.1625391514       -1.4359411974
 H          7.3430026688        3.2169935363       -1.8809948828
 H          7.9216180516        0.9598959764       -1.0706048660
 H          6.2249933979       -0.3558725969        0.2112833765
 H          2.6410871787       -0.1863454990       -1.0324744840
 H          3.2988885760       -2.8005308376        1.3880906271
 H          1.5381022456       -4.4065765193        2.0634129816
 H         -0.7482365206       -4.1840847262        1.1730132318
 C         -1.6940331949       -2.3324395009       -0.5744861900
 H         -2.3008442181       -3.1476613351       -0.1583938285
 C         -1.7410287812       -2.4238612364       -2.0871058640
 C         -1.6260012535       -3.7694756760       -2.7350347271
 C         -2.9356450712       -3.0408907629       -2.7469591417
 H         -3.2850995479       -2.6184151498       -3.6770574057
 H         -3.7278320177       -3.4040543691       -2.1081458659
 H         -1.0738251090       -3.8503512155       -3.6585649794
 H         -1.5303737760       -4.6285129121       -2.0882364708
 H         -1.2798611852       -1.5823086293       -2.5860998195
 O         -1.2534999473        0.4606043409       -1.5326775974
