  62
        -98.94078125
 C          1.9303286226        1.5255767525       -0.0195627755
 C          1.7266815782        0.2422280774       -0.5733279888
 C          2.9186507122       -0.6154390093       -0.7049897095
 C          4.1197917770       -0.1398678328       -0.3264458982
 C          5.5007639998       -0.7595818018       -0.3826934807
 C          5.6755437969       -2.2525246444       -0.6484251688
 C          5.1787515805       -3.1650791280        0.4733518185
 H          5.2390746472       -4.1985615931        0.1255858728
 H          5.8541068198       -3.0619904785        1.3264928409
 C          3.7632515533       -2.8896562823        0.9747556601
 H          3.5554440531       -3.5899029615        1.7883324391
 H          3.7136885884       -1.8838195319        1.3968116405
 C          2.6554067902       -3.0460154803       -0.0648067131
 H          1.7008122333       -2.9495636983        0.4601600266
 H          2.7007452811       -4.0449277289       -0.5032117141
 C          2.6669986463       -2.0101324184       -1.2013227479
 H          3.3785220129       -2.2817395921       -1.9769558605
 H          1.6735459828       -1.9950194937       -1.6597412832
 H          5.2154041220       -2.5215241168       -1.5946904691
 H          6.7495517142       -2.4243386924       -0.7607241131
 H          6.0422984894       -0.2046981417       -1.1568528681
 H          5.9807674055       -0.5061455619        0.5679737594
 O          4.2698294426        1.1233606161        0.1729018967
 C          3.1942009711        1.9728845552        0.3584190540
 O          3.4872513230        3.0757128399        0.8626589155
 H         -1.9546626595        2.0665910071       -0.3241498061
 C         -1.6255989812        1.6577842584        0.6159258570
 C         -0.3034644326        1.7662990365        1.0155748959
 C          0.0695552568        1.2203885294        2.2421828360
 C         -0.8527642157        0.5700362885        3.0377482291
 C         -2.1676181905        0.4420759323        2.6233364614
 C         -2.5525721110        0.9892835392        1.4063345235
 N         -3.8878335709        0.8992451856        0.9696688904
 S         -4.2422455061        0.2220983348       -0.5206471366
 O         -3.5984786073        0.9706652456       -1.5677238267
 O         -5.6881884895        0.1782262055       -0.5632381353
 C         -3.6061587172       -1.4426833045       -0.4326905007
 C         -2.2521523291       -1.6664053146       -0.5811329582
 C         -1.7770173210       -2.9630496433       -0.4535687223
 C         -2.6503773354       -4.0039696541       -0.1813553087
 C         -4.0077339674       -3.7600005798       -0.0337322943
 C         -4.4909708632       -2.4677899478       -0.1556644212
 H         -5.5379615702       -2.2313439349       -0.0539005626
 H         -4.6874122963       -4.5701760116        0.1763869412
 H         -2.2705878284       -5.0090178379       -0.0850842108
 H         -0.7195623493       -3.1414982875       -0.5694833748
 H         -1.5792696347       -0.8504789052       -0.7923603820
 H         -4.5152868600        0.5143552037        1.6622115835
 H         -2.8893020111       -0.0731554093        3.2391136703
 H         -0.5460271874        0.1516886190        3.9845356951
 H          1.0997511832        1.3125115369        2.5599560331
 C          0.7485663613        2.4566183284        0.1817906168
 H          1.1304324989        3.3164298195        0.7517343798
 C          0.2363726578        2.9504369059       -1.1548830916
 C         -0.4567003309        4.2750611291       -1.2514474882
 C          0.9225040811        4.1075767249       -1.8133499901
 H          1.0456195462        4.0920952389       -2.8859555971
 H          1.7503554013        4.5582030300       -1.2849203431
 H         -1.2846283874        4.3724309168       -1.9377880816
 H         -0.5676861819        4.8485426897       -0.3434462475
 H         -0.1121062310        2.1481505245       -1.7959978235
 O          0.5999947498       -0.1769698717       -0.9446207016
