  62
        -98.93346688
 C         -2.3281343716        0.9190853573        0.6159932042
 C         -3.5551520095        0.9255722792       -0.0942308863
 C         -4.4431545226       -0.2410264641        0.0663953988
 C         -4.0505808009       -1.2413782855        0.8765172695
 C         -4.7562132137       -2.5376002571        1.1751022529
 C         -4.6501211269       -3.5511081584        0.0249037643
 C         -4.8974070592       -2.9719885245       -1.3653823115
 H         -4.1793250264       -2.1716228660       -1.5535844848
 H         -4.6987367566       -3.7623393072       -2.0941094870
 C         -6.3125082168       -2.4543432227       -1.6123601997
 H         -7.0253121446       -3.2647722137       -1.4446345953
 H         -6.3738841843       -2.1716619518       -2.6664124866
 C         -6.7401791507       -1.2474548110       -0.7739117873
 H         -7.0151767498       -1.5449545164        0.2344658738
 H         -7.6441253170       -0.8366811714       -1.2330114566
 C         -5.7211532938       -0.1134626566       -0.7270128885
 H         -5.4199883781        0.1423911806       -1.7493540723
 H         -6.2163359195        0.7857988214       -0.3412150740
 H         -3.6412934995       -3.9708628153        0.0358196289
 H         -5.3552439344       -4.3621353031        0.2147833153
 H         -4.2711922512       -2.9612311262        2.0573189059
 H         -5.7950913728       -2.3476254518        1.4278891220
 O         -2.8627783545       -1.2055634213        1.5425116943
 C         -1.9760677690       -0.1502921081        1.4379955984
 O         -0.9441221941       -0.3003960816        2.1237759155
 O         -3.9064514488        1.8787930026       -0.8408692987
 C         -1.4275995176        2.1303000222        0.4401201026
 C         -0.2894977016        1.8305913668       -0.5070159660
 C         -0.2441726862        2.4187203131       -1.7656780011
 C          0.8016556329        2.1505726612       -2.6316091471
 C          1.8185161229        1.2878297747       -2.2645879622
 C          1.7789151719        0.6892924261       -1.0115261572
 C          0.7354934912        0.9699703078       -0.1400203874
 H          0.7007539885        0.4916441876        0.8276697698
 N          2.7869344433       -0.2223246838       -0.6333432097
 S          4.3864269946        0.2940542805       -0.8057976617
 O          4.5766307418        1.5676930056       -0.1460599805
 O          4.7290729841        0.2562354849       -2.2053226722
 C          5.2566262423       -0.9936684300        0.0639640950
 C          5.4896878317       -2.1903818381       -0.5863698942
 C          6.1455640592       -3.2044189773        0.0929225961
 C          6.5550844134       -3.0058817820        1.4032175650
 C          6.3150456864       -1.7987637348        2.0420039065
 C          5.6577259899       -0.7809146391        1.3688328549
 H          5.4569206453        0.1760994000        1.8234431897
 H          6.6364109646       -1.6466853769        3.0598587569
 H          7.0666928067       -3.7961251863        1.9295566101
 H          6.3358203964       -4.1439974220       -0.4002402325
 H          5.1607741484       -2.2960588245       -1.6068822971
 H          2.6353181792       -0.5567908704        0.3097733531
 H          2.6421575730        1.0763344177       -2.9268514849
 H          0.8256590841        2.6172088581       -3.6049966947
 H         -1.0418702342        3.0828915975       -2.0660095067
 H         -2.0630627914        2.8893331062       -0.0355809117
 C         -0.9179416300        2.6888252065        1.7544687125
 C         -0.4159241222        4.0997769323        1.7966554925
 C         -1.7116150785        3.7446179336        2.4609327044
 H         -1.7514082577        3.7229165225        3.5396343128
 H         -2.6296958264        4.0743726958        1.9968468481
 H          0.4381966060        4.3244346275        2.4169439797
 H         -0.4546928032        4.6706446234        0.8811385521
 H         -0.4126257518        1.9561145607        2.3699159670
