  62
        -98.93479721
 C         -1.6799994274        0.0009165542        0.5380886819
 C         -2.8640319578       -0.4559531405        1.1665801151
 C         -4.1501129012       -0.0076478158        0.5980883314
 C         -4.1314432570        0.8398965001       -0.4469128698
 C         -5.2981710151        1.3961124139       -1.2193485057
 C         -5.9200930486        0.3669526796       -2.1767645968
 C         -6.1208117125       -1.0247372648       -1.5827515946
 H         -6.4683748251       -1.6806592314       -2.3853340776
 H         -5.1580414247       -1.4114594299       -1.2438020207
 C         -7.1318488602       -1.1060446545       -0.4414736259
 H         -7.2454295519       -2.1622978691       -0.1843737723
 H         -8.1002477394       -0.7448627782       -0.7946765771
 C         -6.7638493066       -0.3449297868        0.8341630467
 H         -7.4317981685       -0.6958862571        1.6261755808
 H         -6.9496878122        0.7201076508        0.7241824216
 C         -5.3403841294       -0.5820040922        1.3283217485
 H         -5.2611998424       -0.2082219666        2.3562855720
 H         -5.1605853434       -1.6606887979        1.4015348527
 H         -5.2589685159        0.2677388026       -3.0413973133
 H         -6.8769035943        0.7573534069       -2.5276629961
 H         -4.9129538395        2.2310295640       -1.8090655318
 H         -6.0451175630        1.7903530541       -0.5366806166
 O         -2.9664109821        1.2989476025       -0.9863110153
 C         -1.7206709258        0.9085602219       -0.5204714915
 O         -0.7690761995        1.4419615650       -1.1209350475
 O         -2.8548417035       -1.2175496966        2.1707776496
 C         -0.3548740595       -0.4802254877        1.1006801656
 C          0.6050162660        0.6709618436        1.2557594918
 C          0.2928253082        1.6857066103        2.1568001034
 C          1.1389445087        2.7641441175        2.3245429913
 C          2.3233212313        2.8433947375        1.6136624039
 C          2.6489857927        1.8316275121        0.7173723768
 C          1.7897808761        0.7551100176        0.5419849213
 H          2.0299191806        0.0101681243       -0.1965630001
 N          3.8697587994        1.8655715174        0.0409429888
 S          4.3210146053        0.8366434727       -1.1809046950
 O          5.6477596962        1.2947645947       -1.5387409529
 O          3.3678149722        0.7863018978       -2.2638401194
 C          4.4364765639       -0.7561480910       -0.3905464366
 C          4.0124946988       -1.8746353191       -1.0800020723
 C          4.1032125690       -3.1160404277       -0.4707774081
 C          4.6186945407       -3.2173868627        0.8121021315
 C          5.0488437348       -2.0859651627        1.4883503379
 C          4.9604492895       -0.8420552167        0.8839090709
 H          5.2822443319        0.0561320207        1.3837785948
 H          5.4496213024       -2.1690356608        2.4857397767
 H          4.6837983516       -4.1837240099        1.2868481776
 H          3.7692942560       -3.9963642799       -0.9967289962
 H          3.6098023984       -1.7462657961       -2.0726755408
 H          4.3994221668        2.7207889933        0.0871839472
 H          2.9871534811        3.6841028578        1.7444789811
 H          0.8778431130        3.5506115921        3.0167469387
 H         -0.6330464317        1.6236947053        2.7126120348
 H         -0.6064374251       -0.8480576108        2.1098116477
 C          0.2464611315       -1.6584096442        0.3486467376
 C         -0.6290561769       -2.6717953761       -0.3235136973
 C          0.2197228239       -1.7518377182       -1.1461442266
 H          1.0837401080       -2.1602370519       -1.6492121039
 H         -0.2556254577       -0.9505231892       -1.6907810017
 H         -0.3503092690       -3.7127020298       -0.2620274095
 H         -1.6957713313       -2.5026370505       -0.3049815651
 H          1.1350841885       -2.0420077919        0.8418513146
