  62
        -98.94064915
 C         -1.2907516048       -1.3718848626        0.5406632571
 C         -1.6407427597       -0.5720243142       -0.5719979806
 C         -2.4680622315        0.6182262429       -0.2904461025
 C         -2.7658211883        0.9314653501        0.9838458963
 C         -3.5292806402        2.0993613136        1.5743436967
 C         -4.3639586796        3.0153557431        0.6832977661
 C         -5.6080471271        2.3588424122        0.0840327855
 H         -6.0550085084        3.0565354503       -0.6273603923
 H         -6.3319975016        2.1941504904        0.8862044659
 C         -5.3796000268        1.0178966566       -0.6093967456
 H         -6.3499527170        0.6520594213       -0.9559963644
 H         -5.0028415887        0.2909496319        0.1130427187
 C         -4.4409586104        1.0553527686       -1.8134179750
 H         -4.8008727599        1.7906389231       -2.5356819215
 H         -4.4782658919        0.0723166493       -2.2904138536
 C         -2.9681802721        1.3629584862       -1.4946976574
 H         -2.8083310663        2.4326621468       -1.3878001250
 H         -2.3609812228        1.0171366664       -2.3360113751
 H         -3.7455266224        3.4494360668       -0.0967870322
 H         -4.7001736315        3.8421628393        1.3149038766
 H         -4.1726409303        1.6741691104        2.3514446561
 H         -2.7833059116        2.7088315675        2.0972710555
 O         -2.3186753515        0.1777826110        2.0330355948
 C         -1.6013503448       -0.9884638827        1.8435676465
 O         -1.2911315672       -1.5777486766        2.9003887973
 H          1.2291711149       -1.2054273043        1.7414593542
 C          1.6553062377       -1.4759068545        0.7829261733
 C          0.9083377898       -2.2633991383       -0.0860041063
 C          1.4598713376       -2.6040947852       -1.3125609296
 C          2.7242936680       -2.1562657596       -1.6591981399
 C          3.4616400586       -1.3677467481       -0.7955146132
 C          2.9195269102       -1.0290308204        0.4382610233
 N          3.6545526015       -0.2066838035        1.3188322658
 S          4.1009680233        1.2829589825        0.6914302794
 O          5.2729187454        1.1179681395       -0.1306312171
 O          4.2477101333        2.1566761930        1.8341351574
 C          2.7176810689        1.7866321787       -0.3155269828
 C          1.5364569795        2.1140734963        0.3199980254
 C          0.4371875465        2.4637505977       -0.4458564613
 C          0.5349658348        2.4705383406       -1.8285378232
 C          1.7260688794        2.1348468971       -2.4516382256
 C          2.8302283429        1.7871494326       -1.6904212173
 H          3.7753980045        1.5209566852       -2.1343326349
 H          1.7950225410        2.1375627813       -3.5273467819
 H         -0.3248979761        2.7358560862       -2.4223039612
 H         -0.4932948418        2.7166782905        0.0373078009
 H          1.4937329689        2.1015042798        1.3982082861
 H          3.1977637739       -0.0797050815        2.2110352480
 H          4.4425654215       -1.0028304437       -1.0537358707
 H          3.1393078964       -2.4227976106       -2.6190382683
 H          0.8958164173       -3.2076193598       -2.0036911889
 C         -0.4827357335       -2.6468456968        0.3566655276
 H         -0.4043370516       -3.0999867348        1.3552405612
 C         -1.1827278889       -3.6189046612       -0.5669414939
 C         -0.8321775504       -5.0745636926       -0.5136104751
 C         -2.1534437269       -4.6018829155        0.0122581004
 H         -3.0464074011       -4.8358398533       -0.5477274303
 H         -2.3028537238       -4.5856390313        1.0824025066
 H         -0.0832366068       -5.3822716650        0.2005426632
 H         -0.8191238524       -5.6370282976       -1.4346701603
 H         -1.4276776362       -3.1867274241       -1.5291467642
 O         -1.2891069184       -0.8294876683       -1.7503925763
