  62
        -98.94041602
 C         -2.5616743914       -0.0277424323        0.4593415122
 C         -2.1531448079        0.5783687839       -0.7505587134
 C         -1.7696102902        2.0007438302       -0.6806361961
 C         -1.7976266654        2.6338903878        0.5069570446
 C         -1.4967668061        4.0689729649        0.8896218977
 C         -0.8802242985        5.0318335695       -0.1200038781
 C          0.5829900177        4.7425133612       -0.4574472166
 H          0.8787699314        5.3837263127       -1.2905191568
 H          1.1954987037        5.0128202502        0.4063843406
 C          0.9078542636        3.2926359227       -0.8089586980
 H          1.9870793659        3.2163074165       -0.9723186831
 H          0.6779674148        2.6365491934        0.0340955370
 C          0.2207506037        2.7450276069       -2.0575622965
 H          0.4675915018        3.3693982534       -2.9195246643
 H          0.6291998689        1.7457526596       -2.2324663299
 C         -1.3076702969        2.6158127334       -1.9705347963
 H         -1.7945317201        3.5735570503       -2.1410725295
 H         -1.6310827275        1.9350585247       -2.7640649122
 H         -0.9236412060        6.0274769864        0.3297324183
 H         -1.4856795595        5.0663226909       -1.0208805338
 H         -2.4508140881        4.4855200728        1.2314006105
 H         -0.8517047486        4.0131852641        1.7726135479
 O         -2.1934822590        2.0008830500        1.6519109356
 C         -2.5598717918        0.6686054146        1.6643435697
 O         -2.8665353585        0.2277789606        2.7923765415
 H         -0.3431709935       -1.0769539495        0.9520772714
 C         -0.4891827869       -1.9486774749        0.3312938889
 C         -1.7771952009       -2.3300521013       -0.0202352631
 C         -1.9411785797       -3.4640730793       -0.8057614720
 C         -0.8378484246       -4.1737710461       -1.2474975417
 C          0.4440084754       -3.7609223713       -0.9338788911
 C          0.6181278741       -2.6352893937       -0.1370420017
 N          1.9073376083       -2.1828816860        0.2178713737
 S          2.1992257842       -0.5268523738        0.0084778813
 O          1.5507041278        0.2117107725        1.0624985444
 O          1.8842449122       -0.1446223924       -1.3489986240
 C          3.9648813119       -0.4887569771        0.2577820151
 C          4.8083609755       -0.2923531973       -0.8185456774
 C          6.1783168378       -0.2922625460       -0.6053644200
 C          6.6778879403       -0.4914828959        0.6725547916
 C          5.8181171226       -0.6866515871        1.7437221784
 C          4.4479024094       -0.6852030332        1.5377137665
 H          3.7407488237       -0.8239266786        2.3389666031
 H          6.2097652153       -0.8390626214        2.7364686871
 H          7.7439441269       -0.4924588255        0.8360052098
 H          6.8485417758       -0.1374360086       -1.4354454413
 H          4.3726180608       -0.1377773039       -1.7925785296
 H          2.6283428587       -2.7059942097       -0.2643412798
 H          1.3031500208       -4.3012546128       -1.3024284964
 H         -0.9783781445       -5.0509558211       -1.8608771379
 H         -2.9323868687       -3.7861775702       -1.0806579585
 C         -2.9322347574       -1.4987898674        0.4863939198
 H         -3.0966861517       -1.7506558599        1.5452893155
 C         -4.2193846418       -1.7349521383       -0.2775154424
 C         -5.1662824778       -2.8168149297        0.1452193496
 C         -5.5202930460       -1.3792875690        0.3752321488
 H         -6.2953531013       -0.9325722323       -0.2290260428
 H         -5.4760669200       -0.9939410824        1.3837884498
 H         -5.7043458982       -3.3581735838       -0.6183231663
 H         -4.8943840309       -3.4125418710        1.0035093326
 H         -4.1155908350       -1.5252044076       -1.3359990928
 O         -2.1235808203       -0.0360775549       -1.8501622742
