  62
        -98.94007111
 C          0.9197146484        1.7219648701       -0.1730941791
 C          1.1354293495        0.3542059303       -0.4624647092
 C          2.2822212600       -0.2963046988        0.2055103809
 C          3.0175319292        0.4092531117        1.0826488811
 C          4.2352015295       -0.0375070974        1.8463299613
 C          5.4988738997       -0.0887378563        0.9693859215
 C          5.2929946804       -0.6649879663       -0.4295733986
 H          4.5116405300       -0.0975399669       -0.9382885287
 H          6.2199451303       -0.5154643255       -0.9894478484
 C          4.9536279316       -2.1525759366       -0.4781778788
 H          5.7748814620       -2.7207911760       -0.0353396787
 H          4.8820130020       -2.4362365965       -1.5310624688
 C          3.6546834418       -2.5637554077        0.2166377409
 H          3.7748648516       -2.5634691677        1.2967506109
 H          3.4451512527       -3.5982786878       -0.0710564592
 C          2.4273956312       -1.7484988287       -0.1797701092
 H          2.3104924714       -1.7831203586       -1.2687227692
 H          1.5348558215       -2.2424978794        0.2234972106
 H          5.8677024988        0.9333639140        0.8546884717
 H          6.2614826800       -0.6651783257        1.4955698716
 H          4.3927241787        0.6941398326        2.6420242614
 H          4.0442107502       -0.9979185276        2.3166287112
 O          2.7516671081        1.7169017514        1.3631507012
 C          1.7163715377        2.3958124207        0.7561504711
 O          1.6072913766        3.5877901405        1.1133339812
 H         -1.4375828804        0.2171038982       -0.2442688997
 C         -1.9841528811        1.0575577377        0.1487691003
 C         -1.4939746521        2.3412921881       -0.0388925195
 C         -2.2154766831        3.4130987875        0.4733195005
 C         -3.3940459131        3.1986938265        1.1661544603
 C         -3.8622430320        1.9144493261        1.3800215501
 C         -3.1454778411        0.8372528567        0.8722105001
 N         -3.5791548400       -0.4841725937        1.0610207199
 S         -2.4478518991       -1.6850654028        1.3566087499
 O         -3.1835773784       -2.7032218635        2.0823439897
 O         -1.2811594997       -1.1660414619        2.0354841002
 C         -2.0072795083       -2.3546656823       -0.2326946200
 C         -0.9965189075       -3.2943925614       -0.2462825300
 C         -0.6213326168       -3.8639146210       -1.4512752900
 C         -1.2664077969       -3.4880240814       -2.6185342500
 C         -2.2862262777       -2.5512480622       -2.5865477501
 C         -2.6657902084       -1.9769521927       -1.3834689701
 H         -3.4465850190       -1.2359493633       -1.3332722502
 H         -2.7836758978       -2.2573190626       -3.4970854702
 H         -0.9678720764       -3.9246420611       -3.5587203200
 H          0.1757944437       -4.5899137804       -1.4759668499
 H         -0.5206834875       -3.5533721712        0.6874209501
 H         -4.3929966401       -0.5920103444        1.6486308897
 H         -4.7698159520        1.7450604753        1.9393917799
 H         -3.9461107838        4.0390313060        1.5591136003
 H         -1.8383805839        4.4167294678        0.3417619407
 C         -0.1984773622        2.5526203893       -0.7849063492
 H          0.1003943269        3.6007798695       -0.6454907090
 C         -0.3952141517        2.3013447593       -2.2679365393
 C         -1.0431275424        3.3604300788       -3.1058798893
 C          0.4202735378        3.0744248200       -3.2582275890
 H          0.7607932284        2.5698919104       -4.1497398390
 H          1.1246120572        3.7962785906       -2.8700883988
 H         -1.3302103933        4.2799544885       -2.6186787592
 H         -1.7115061721        3.0538712684       -3.8954705994
 H         -0.6127114408        1.2670944091       -2.4986692894
 O          0.4270126402       -0.3267723602       -1.2518421394
