  62
        -98.93828891
 C         -2.0692526646       -1.0852151599        0.3054845211
 C         -2.1198671629       -0.1562010994       -0.7635282343
 C         -2.3760470616        1.2406761843       -0.3778224801
 C         -2.5008604254        1.5760261560        0.9172325304
 C         -2.7264077665        2.9615092872        1.4599956542
 C         -4.1950835088        3.4078290640        1.4488054327
 C         -4.7656733823        3.7381879698        0.0689670925
 H         -5.7208659986        4.2417737174        0.2300194866
 H         -4.1050813129        4.4438297675       -0.4355512522
 C         -4.9981776119        2.5160301831       -0.8302037926
 H         -4.9968943106        1.6098566545       -0.2201699037
 H         -5.9833831144        2.5885742855       -1.2961351105
 C         -3.9761066368        2.3533053570       -1.9555159614
 H         -4.2131602305        1.4395914738       -2.5062680563
 H         -4.0547694934        3.1943706481       -2.6479076527
 C         -2.5222810777        2.2507791465       -1.4758136858
 H         -2.1631745733        3.2251984359       -1.1440041414
 H         -1.9010981955        1.9196688152       -2.3122770761
 H         -4.7991968192        2.6268320455        1.9160697959
 H         -4.2673377709        4.3022920822        2.0717413837
 H         -2.1201606430        3.6744111354        0.8999448262
 H         -2.3759857685        2.9476551946        2.4943835042
 O         -2.4192831976        0.6587291685        1.9181830333
 C         -2.1963317453       -0.6768269000        1.6356827155
 O         -2.1456840695       -1.4096247142        2.6459461828
 O         -1.9711243353       -0.4478634401       -1.9777014262
 C         -1.7517584640       -2.5630551285        0.1350490493
 C         -0.2873687618       -2.7854109388        0.4224197821
 C          0.1422596847       -3.8552096695        1.1986336229
 C          1.4853470823       -4.0181643337        1.4890488493
 C          2.4194020859       -3.1059815340        1.0330473898
 C          1.9991030316       -2.0336969542        0.2538025755
 C          0.6571966586       -1.8929559046       -0.0636298042
 H          0.3492784283       -1.0558239121       -0.6728483547
 N          2.9134419957       -1.0826274304       -0.2277658755
 S          2.3980374920        0.5286531736       -0.2822519659
 O          1.5976872724        0.8344388970        0.8825019179
 O          1.7967883697        0.7795563684       -1.5672471494
 C          3.9726474058        1.3630037935       -0.1897770740
 C          4.7187363410        1.5071687463       -1.3444711931
 C          5.9610295763        2.1166404317       -1.2673513628
 C          6.4346825262        2.5679226968       -0.0442189231
 C          5.6738643743        2.4180163493        1.1055620407
 C          4.4310710079        1.8079804153        1.0357180728
 H          3.8003117875        1.6757153592        1.9003859905
 H          6.0424272626        2.7728444299        2.0544815729
 H          7.4016593679        3.0420274038        0.0131657150
 H          6.5538698616        2.2372964793       -2.1595610137
 H          4.3041525836        1.1481132056       -2.2719819094
 H          3.8284074179       -1.1673040427        0.1944074411
 H          3.4639769806       -3.2168329134        1.2813062723
 H          1.8058462093       -4.8515623456        2.0954710617
 H         -0.5869951293       -4.5457039186        1.5961286608
 H         -2.3199573827       -3.0838144878        0.9241011965
 C         -2.1886511992       -3.1473893093       -1.1989275819
 C         -1.2335007715       -3.4442917542       -2.3113397194
 C         -1.8549561577       -4.5692392547       -1.5427758837
 H         -2.6089225697       -5.1713056822       -2.0265926877
 H         -1.2224727361       -5.1138607599       -0.8585101016
 H         -1.5653896044       -3.2486251290       -3.3193137968
 H         -0.1882852036       -3.2272375360       -2.1521833858
 H         -3.1708354454       -2.7927153432       -1.4923366063
