  62
        -98.94518759
 C         -1.5350974557        0.8025974364       -0.0663978683
 C         -2.8106705317        1.4072116019       -0.1551612439
 C         -3.9049577804        0.5259854308       -0.5788501978
 C         -3.6484431721       -0.7610655850       -0.8764137800
 C         -4.6546759718       -1.7776832138       -1.3440006293
 C         -5.4374317447       -2.4500329329       -0.2077785046
 C         -6.4837195152       -1.5668635935        0.4732069393
 H         -7.1017379662       -2.2207956112        1.0917973602
 H         -7.1337795621       -1.1258463903       -0.2831536242
 C         -5.8975942410       -0.4593403173        1.3599884380
 H         -4.8525193483       -0.6856257086        1.5833627726
 H         -6.4304953072       -0.4355930349        2.3132940669
 C         -5.9812079899        0.9441857501        0.7599297268
 H         -5.5056178311        1.6422125757        1.4537220022
 H         -7.0284235311        1.2364936436        0.6544088171
 C         -5.2935985815        1.0897697968       -0.6039224054
 H         -5.2157480529        2.1548157297       -0.8365126873
 H         -5.8882279489        0.6057423776       -1.3784980203
 H         -4.7273681222       -2.8139471441        0.5382253190
 H         -5.9475131844       -3.3177259724       -0.6325111350
 H         -4.0929402131       -2.5474505533       -1.8773259405
 H         -5.3516049955       -1.3109848508       -2.0407351811
 O         -2.4013358784       -1.2972783236       -0.8034693080
 C         -1.3163040909       -0.5384208057       -0.3844456721
 O         -0.2389899336       -1.1584785746       -0.3459258539
 O         -3.0227684980        2.6241224947        0.0976570190
 C         -0.3518022646        1.6341571271        0.3917549139
 C          0.7488654782        1.5875646731       -0.6379572008
 C          0.4358061378        1.8191675124       -1.9754971783
 C          1.4129368432        1.7640114481       -2.9494277763
 C          2.7228921140        1.4672049315       -2.6143036097
 C          3.0489586493        1.2512030910       -1.2816365766
 C          2.0670792148        1.3249587118       -0.3021826633
 H          2.3534706810        1.1765389167        0.7245340808
 N          4.3692001198        0.9705683767       -0.9075627162
 S          4.7057168657        0.0148640934        0.4183921014
 O          4.5226777582        0.7707530613        1.6325298962
 O          6.0526418370       -0.4580862051        0.1758420737
 C          3.5679658353       -1.3568311785        0.3682981665
 C          2.8012440562       -1.6442494065        1.4777903142
 C          1.9386610174       -2.7264871338        1.4353865909
 C          1.8554809004       -3.4968977589        0.2877715075
 C          2.6338201247       -3.1967566806       -0.8182916775
 C          3.5009495785       -2.1181968857       -0.7805485432
 H          4.1218810193       -1.8644857962       -1.6246517999
 H          2.5607533537       -3.7960975855       -1.7117251398
 H          1.1735376437       -4.3316906993        0.2532942062
 H          1.3259222411       -2.9584187282        2.2922836716
 H          2.8900837755       -1.0137312073        2.3488266254
 H          5.0090552533        0.8061115121       -1.6699532476
 H          3.4855352829        1.4098120778       -3.3756919261
 H          1.1529476712        1.9428788671       -3.9819489596
 H         -0.5897995865        2.0368907827       -2.2412173716
 H         -0.7232513495        2.6677894142        0.4582787354
 C          0.0958718718        1.1849183882        1.7670353884
 C          0.7662653859        2.1479395115        2.6990812296
 C         -0.6323999403        1.6865449197        2.9762716932
 H         -0.8000174740        1.0063080009        3.7978581861
 H         -1.4420196132        2.3832912941        2.8144018787
 H          1.5680320747        1.7878650377        3.3268073552
 H          0.9066186529        3.1611630678        2.3536289878
 H          0.4266134521        0.1517146879        1.7744231177
