  62
        -98.94011746
 C         -1.9266694923       -1.5229586996       -0.0281582188
 C         -1.7197712545       -0.2356368358       -0.5697061786
 C         -2.9082165289        0.6317442014       -0.6984033167
 C         -4.1075495406        0.1465181683       -0.3265744833
 C         -5.4397197157        0.8481485717       -0.3329803973
 C         -5.5891401322        1.8450297087        0.8275118141
 C         -4.3719931000        2.7330942568        1.0718402355
 H         -4.5637003271        3.3158599367        1.9766598169
 H         -3.5031118893        2.1030596508        1.2706337563
 C         -4.0445131680        3.7119908179       -0.0533216360
 H         -4.9077660421        4.3576628733       -0.2289486759
 H         -3.2237960857        4.3435883320        0.2958994288
 C         -3.6267608745        3.0852627060       -1.3856697912
 H         -3.1856283654        3.8794870128       -1.9950608082
 H         -4.4891107898        2.7190599328       -1.9362674328
 C         -2.5730563248        1.9885512178       -1.2694720938
 H         -2.1591587135        1.7935548826       -2.2662388450
 H         -1.7304247748        2.3620530610       -0.6763653478
 H         -6.4651283230        2.4672007999        0.6363269319
 H         -5.7738938257        1.2742180166        1.7408976410
 H         -5.5992864031        1.3390450850       -1.2883649555
 H         -6.2022332944        0.0734602556       -0.2258561089
 O         -4.2606718445       -1.1137946986        0.1739043580
 C         -3.1924555193       -1.9709877039        0.3458194905
 O         -3.4880147195       -3.0807480366        0.8338682161
 H          1.9491738638       -2.0786308938       -0.3773622176
 C          1.6330001087       -1.6892204775        0.5752602673
 C          0.3145064671       -1.7974489590        0.9868995571
 C         -0.0414605759       -1.2752548318        2.2288076618
 C          0.8939460627       -0.6487801799        3.0283569037
 C          2.2051905963       -0.5210408231        2.6025745228
 C          2.5727209623       -1.0441439724        1.3697469766
 N          3.9030376470       -0.9517833783        0.9169826635
 S          4.2315803835       -0.2055037111       -0.5462977994
 O          3.5561487041       -0.8951987895       -1.6134129757
 O          5.6765672146       -0.1719545448       -0.6208235234
 C          3.6145706131        1.4582397787       -0.3577738875
 C          2.2608756656        1.7040670130       -0.4705996691
 C          1.8036794692        2.9963983582       -0.2599187750
 C          2.6929672640        4.0104546176        0.0581495498
 C          4.0496096027        3.7441588215        0.1683706200
 C          4.5154912506        2.4561837974       -0.0367783814
 H          5.5611794695        2.2030879349        0.0333922878
 H          4.7418247713        4.5334225418        0.4140656164
 H          2.3265450335        5.0121405587        0.2195207402
 H          0.7470453732        3.1937223378       -0.3482404874
 H          1.5758422169        0.9087037227       -0.7190113285
 H          4.5445428393       -0.6019395770        1.6153943563
 H          2.9371336716       -0.0240916938        3.2212664242
 H          0.6003784117       -0.2491495165        3.9873081119
 H         -1.0689273791       -1.3669668500        2.5553828644
 C         -0.7503644842       -2.4652468305        0.1517612843
 H         -1.1355746441       -3.3296809056        0.7124049836
 C         -0.2538381218       -2.9449192743       -1.1959730674
 C          0.4259088264       -4.2744869083       -1.3166653701
 C         -0.9565031633       -4.0865848892       -1.8640211178
 H         -1.0890346857       -4.0555535881       -2.9351725086
 H         -1.7839468821       -4.5364084206       -1.3342746830
 H          1.2465701517       -4.3701954285       -2.0118892182
 H          0.5395460651       -4.8613996128       -0.4176501051
 H          0.0965709385       -2.1367903027       -1.8287630939
 O         -0.5894586258        0.1886094236       -0.9264117576
