  62
        -98.94377224
 C          1.7446517780        0.3980456021        0.3347245952
 C          2.6037702667        0.3204175352       -0.7888798220
 C          3.7696123407       -0.5614522982       -0.6369175322
 C          3.9269062857       -1.2819849089        0.4875441681
 C          5.0467208421       -2.2446276351        0.7754230968
 C          6.3198803056       -1.5785317817        1.3151019521
 C          7.1216732213       -0.7789126548        0.2873673734
 H          8.0894985905       -0.5552593509        0.7405904784
 H          7.3090048109       -1.4006005306       -0.5887486476
 C          6.4625093774        0.5384712781       -0.1443585298
 H          5.6901008648        0.8129178093        0.5777220427
 H          7.2071364480        1.3375794545       -0.1356680762
 C          5.8448923409        0.5100843065       -1.5425140680
 H          6.6308696628        0.3688923344       -2.2877061521
 H          5.3745449589        1.4788128772       -1.7287286846
 C          4.7823295962       -0.5787191495       -1.7418080370
 H          4.2549115408       -0.3777072011       -2.6775229828
 H          5.2552413219       -1.5581425168       -1.8108159314
 H          6.9608260674       -2.3717866366        1.7067768318
 H          6.0474686436       -0.9292000237        2.1503563496
 H          5.2846172787       -2.8103058952       -0.1259864217
 H          4.6735583691       -2.9383004017        1.5321292421
 O          3.0385596522       -1.2330573789        1.5163933962
 C          1.9407415118       -0.3916530739        1.4694200424
 O          1.2146865246       -0.4412708725        2.4845443928
 O          2.4205341369        0.9472545940       -1.8632212127
 C          0.5111754363        1.2876485293        0.3281836808
 C         -0.5257216603        0.6546865598       -0.5671369796
 C         -0.8312557141        1.1153549635       -1.8403840638
 C         -1.7877488752        0.4702269494       -2.6066059423
 C         -2.4669865560       -0.6301966719       -2.1162488319
 C         -2.1683303114       -1.0956805154       -0.8420830888
 C         -1.2024605611       -0.4577151028       -0.0812724136
 H         -0.9633900875       -0.8240729408        0.9094335521
 N         -2.9081705013       -2.1779821833       -0.3110895572
 S         -4.5359880406       -1.8159131583       -0.0916863807
 O         -4.9981663110       -2.6902216704        0.9629049513
 O         -5.2178824246       -1.9316192884       -1.3556008049
 C         -4.5219825644       -0.1137828517        0.4427779090
 C         -4.1118016156        0.1606722881        1.7322259176
 C         -3.9778828371        1.4819456216        2.1263971105
 C         -4.2441895822        2.5005787435        1.2241919269
 C         -4.6592634640        2.2085752145       -0.0657099508
 C         -4.7984065807        0.8890383169       -0.4643414449
 H         -5.1151406364        0.6182927525       -1.4578437657
 H         -4.8654291390        3.0034897700       -0.7638876770
 H         -4.1276514896        3.5285357254        1.5302310893
 H         -3.6551465409        1.7109125083        3.1296200569
 H         -3.9106203311       -0.6573562524        2.4059611326
 H         -2.5238435991       -2.5194223552        0.5593394540
 H         -3.2306771007       -1.1303881633       -2.6898277403
 H         -2.0110692736        0.8338364862       -3.5978730456
 H         -0.3096125345        1.9701518857       -2.2368121826
 H          0.1199763679        1.2586517816        1.3545031081
 C          0.8270045277        2.7240547345       -0.0271837816
 C         -0.2042524051        3.7760605149        0.2479551130
 C          1.0447305095        3.7162099415        1.0735620936
 H          1.7932021069        4.4820047188        0.9348228166
 H          0.9703216128        3.3600937140        2.0909241427
 H         -0.3159441888        4.5863027619       -0.4557585657
 H         -1.1293798568        3.4534614954        0.7017753529
 H          1.4367202937        2.8246563857       -0.9157514192
