  62
        -98.94297588
 C         -2.0559143490       -1.1898588695        0.4407878218
 C         -0.9001127584       -1.4579275796        1.2147076409
 C         -0.1214154087       -2.6393400595        0.8111043802
 C         -0.4385351196       -3.3012474595       -0.3146342596
 C          0.2691251000       -4.5084064894       -0.8679304802
 C          1.5364026694       -4.1734038593       -1.6661367912
 C          2.7510029500       -3.7799948793       -0.8246454421
 H          2.9056289207       -4.5237603294       -0.0415815123
 H          3.6202236595       -3.8139347193       -1.4847320928
 C          2.6669474405       -2.3806328694       -0.1997468420
 H          1.9187584901       -1.7837804894       -0.7269442614
 H          3.6237626104       -1.8675022893       -0.3304564127
 C          2.3524703117       -2.3704958295        1.2952027282
 H          2.3071460819       -1.3297445395        1.6206320483
 H          3.1625905921       -2.8593070295        1.8420944176
 C          1.0329347820       -3.0529645495        1.6770987593
 H          1.1506286120       -4.1363464795        1.6363071491
 H          0.7900254028       -2.7674933596        2.7040829695
 H          1.7974794590       -5.0588829893       -2.2509870015
 H          1.3055137888       -3.3664352193       -2.3662029210
 H          0.5188930107       -5.1937623794       -0.0569820505
 H         -0.4397049705       -5.0030438094       -1.5357297697
 O         -1.4924257002       -2.9444535495       -1.0967859587
 C         -2.3249540299       -1.9024451395       -0.7306956280
 O         -3.2777617206       -1.7095797695       -1.5151026373
 O         -0.5208017477       -0.7749465596        2.2006191406
 C         -3.0308128789       -0.0548899196        0.7241968226
 C         -2.6923530396        1.1254725205       -0.1511036976
 C         -3.6667545301        1.8397836605       -0.8358859768
 C         -3.3077427908        2.8852375905       -1.6694276470
 C         -1.9774433010        3.2129537306       -1.8595739080
 C         -0.9940456704        2.5009139706       -1.1799170589
 C         -1.3643855497        1.4920502405       -0.3067945186
 H         -0.6052903893        0.9427698005        0.2212834508
 N          0.3660281694        2.7899871306       -1.3591730399
 S          1.5293145894        1.5749072607       -1.4432218309
 O          2.3664998685        1.9425631507       -2.5680666215
 O          0.9273074494        0.2662567806       -1.5022413105
 C          2.4745807606        1.8111375706        0.0510135084
 C          2.0380427215        1.3095064705        1.2606645387
 C          2.7966408824        1.5462380405        2.3976144781
 C          3.9709446223        2.2767188705        2.3122470872
 C          4.3970347713        2.7755629306        1.0906388369
 C          3.6434565505        2.5433044107       -0.0477577925
 H          3.9406256997        2.9045570707       -1.0184932227
 H          5.3112088313        3.3428178407        1.0217299862
 H          4.5551507830        2.4553800805        3.2011091768
 H          2.4567593332        1.1519837904        3.3422707383
 H          1.1272927116        0.7345801605        1.3244905294
 H          0.5509518588        3.4981461907       -2.0547114200
 H         -1.6983448516        4.0063152306       -2.5365470382
 H         -4.0712264613        3.4359242205       -2.1979710064
 H         -4.7044028501        1.5576594604       -0.7337127660
 H         -4.0182105791       -0.4260104796        0.4023172034
 C         -3.1387180077        0.3086442103        2.1971489027
 C         -2.5249684673        1.5412664103        2.7823197423
 C         -4.0114966674        1.4508806503        2.6263248935
 H         -4.6199700867        1.3298043602        3.5096361439
 H         -4.4686650880        2.0476818803        1.8516699639
 H         -2.0961235665        1.4647108503        3.7694253520
 H         -1.9818265478        2.1997683904        2.1222207419
 H         -3.1448198472       -0.5722831797        2.8301074027
