  62
        -98.94892364
 C         -2.2403848973       -0.8378788912        0.0768619668
 C         -1.5867063974       -0.1071744006       -0.9441131967
 C         -1.9746275617        1.3032213680       -1.0753359786
 C         -2.8730489439        1.8207773904       -0.2185245208
 C         -3.3651714692        3.2388693584       -0.2403410066
 C         -2.5296932986        4.1523214048        0.6655025614
 C         -1.0211188315        4.0349573107        0.4473419232
 H         -0.6785704089        3.0503365296        0.7745123977
 H         -0.5404596830        4.7673396565        1.1008292439
 C         -0.5647510021        4.2654837647       -0.9999719254
 H          0.3202160386        4.9053063435       -0.9857698669
 H         -1.3401861703        4.7932511440       -1.5575803874
 C         -0.1763906421        2.9848168514       -1.7415227616
 H          0.4862380252        2.3942835446       -1.1037009683
 H          0.3847627469        3.2633630017       -2.6377860524
 C         -1.3434751639        2.0936517989       -2.1865982095
 H         -0.9497908606        1.3557995760       -2.8918616395
 H         -2.0924896390        2.6981352716       -2.7035707919
 H         -2.7442171955        3.9006355146        1.7069409386
 H         -2.8437143053        5.1842352724        0.4942606871
 H         -4.3990205293        3.2449476965        0.1107176970
 H         -3.3381848458        3.6063826365       -1.2645932890
 O         -3.4342823927        1.1032012300        0.7897759397
 C         -3.1224545151       -0.2342135867        0.9701410417
 O         -3.6892670309       -0.7697280634        1.9469265435
 O         -0.7369551415       -0.6141337723       -1.7220725668
 C         -1.9343258417       -2.3156244927        0.2626790190
 C         -0.4449279329       -2.4911573510        0.4206958119
 C          0.3151164364       -3.3940047698       -0.3113239790
 C          1.6929603988       -3.4262834479       -0.1773449727
 C          2.3415040751       -2.5474366100        0.6714199275
 C          1.5856988281       -1.6635966400        1.4288068687
 C          0.2067483626       -1.6590540775        1.3230500577
 H         -0.3724161983       -0.9530374520        1.9067213184
 N          2.2625075635       -0.6940139763        2.2298858788
 S          2.2777617892        0.7914533753        1.4181821944
 O          3.0240253092        1.6959840118        2.2681482894
 O          0.9365649543        1.2248330046        1.0903707831
 C          3.2079590393        0.4088210219       -0.0453429440
 C          4.5855336371        0.4916260380        0.0219613023
 C          5.3327812195        0.1486785019       -1.0926650086
 C          4.6915143986       -0.2741591918       -2.2477566114
 C          3.3084630504       -0.3527732371       -2.2967617086
 C          2.5522676756       -0.0110956130       -1.1857023240
 H          1.4742808875       -0.0740590147       -1.1994154514
 H          2.8043264820       -0.6844213277       -3.1901677197
 H          5.2722951324       -0.5445764076       -3.1156004045
 H          6.4086017441        0.2090765324       -1.0569584000
 H          5.0349896937        0.8284997360        0.9416637107
 H          1.8109984504       -0.5468118060        3.1237981146
 H          3.4159805722       -2.5305357937        0.7538284629
 H          2.2697034999       -4.1262818866       -0.7616302699
 H         -0.1716128654       -4.0597809807       -1.0050628185
 H         -2.4263070452       -2.6154611742        1.1995222180
 C         -2.5220243351       -3.1165447459       -0.8804833870
 C         -2.9215062107       -4.5460237487       -0.6737971514
 C         -3.9721101915       -3.4893313134       -0.8321754062
 H         -4.5428798271       -3.4593124921       -1.7480533517
 H         -4.5324088994       -3.1844185789        0.0400146313
 H         -2.7756540728       -5.2451973157       -1.4831106505
 H         -2.7744645379       -4.9692274082        0.3083094949
 H         -2.1117807907       -2.8304432673       -1.8421205056
