  62
        -98.93857245
 C         -1.6392029096       -0.7499495312        0.0289105407
 C         -2.9243280295       -1.2842887814        0.2670690107
 C         -4.0161068398       -0.3176818416        0.4964945105
 C         -3.7282403300        0.9973977685        0.4808035003
 C         -4.6778063703        2.1548136283        0.6374746501
 C         -5.5054687603        2.4151402379       -0.6327556000
 C         -6.0481347200        1.1634203777       -1.3182256598
 H         -6.4999594900        1.4721870075       -2.2646954198
 H         -5.2175359398        0.4973337478       -1.5593236996
 C         -7.1033685699        0.3930716576       -0.5282202097
 H         -7.4435398297       -0.4324503426       -1.1588765796
 H         -7.9605101700        1.0452305975       -0.3453075898
 C         -6.6441501298       -0.1880764621        0.8099552204
 H         -7.4198583597       -0.8824573022        1.1463404005
 H         -6.5751003300        0.5872186180        1.5681344403
 C         -5.3457541596       -0.9870934718        0.7484621806
 H         -5.2290742396       -1.5321268217        1.6933325907
 H         -5.4398973694       -1.7626247520       -0.0201712693
 H         -6.3321667404        3.0797759178       -0.3767934901
 H         -4.8655287104        2.9334826379       -1.3507942100
 H         -5.3227526203        1.9937524083        1.4961638901
 H         -4.0672850205        3.0371315984        0.8408807100
 O         -2.4670603401        1.4670509087        0.2610396503
 C         -1.3955169299        0.6228884689        0.0306696305
 O         -0.3093376100        1.2010436591       -0.1526994796
 O         -3.1601213393       -2.5237572415        0.2853272909
 C         -0.4837812194       -1.6933938910       -0.2445635191
 C          0.6297862305       -1.4789900106        0.7502327809
 C          0.3199944104       -1.4017919804        2.1061301509
 C          1.3124234503       -1.2198509701        3.0487129909
 C          2.6366397303       -1.1090715099        2.6612734609
 C          2.9592051104       -1.1981303200        1.3131590509
 C          1.9586484905       -1.3857885404        0.3680180609
 H          2.2411163205       -1.4658761105       -0.6674409290
 N          4.2978626904       -1.1316851498        0.8984641510
 S          4.7426630403       -0.3145513799       -0.4896139391
 O          4.2835938905       -1.0258035802       -1.6551416690
 O          6.1764094802       -0.1652448396       -0.3630953291
 C          3.9604624799        1.2820153099       -0.3745177994
 C          2.8779982099        1.5836216796       -1.1730016095
 C          2.2704201297        2.8214175795       -1.0394780597
 C          2.7531702794        3.7288804997       -0.1106253098
 C          3.8466903995        3.4135292601        0.6823028002
 C          4.4572123597        2.1778688002        0.5525781105
 H          5.3179499498        1.9014591304        1.1399976805
 H          4.2207111093        4.1257032303        1.4004073201
 H          2.2727849392        4.6889964696       -0.0051922700
 H          1.4125299696        3.0603725892       -1.6461483098
 H          2.5272637801        0.8524894894       -1.8827691794
 H          4.9583160603       -0.9634620096        1.6430712110
 H          3.4134529803       -0.9645257696        3.3964376009
 H          1.0545644303       -1.1593844800        4.0953722309
 H         -0.7145627596       -1.4859478006        2.4102836608
 H         -0.8878521592       -2.7057575510       -0.0916966790
 C         -0.0370870794       -1.5615372611       -1.6855016391
 C          0.5878492609       -2.7225266311       -2.3972887289
 C         -0.7977796492       -2.2800005214       -2.7576714090
 H         -0.9530531393       -1.7822827016       -3.7032461991
 H         -1.6284489791       -2.8969712916       -2.4471215790
 H          1.3930752208       -2.5295000710       -3.0908007689
 H          0.6979513910       -3.6444431310       -1.8463043488
 H          0.3270591904       -0.5660992311       -1.9158036393
