  62
        -98.93795708
 C         -2.3046681961        1.0615292733        0.1720781252
 C         -3.6935433994        1.1627070321       -0.1050870513
 C         -4.5575232905        0.1373738944        0.4928806217
 C         -4.0004763552       -0.8394003884        1.2309601083
 C         -4.7514319527       -1.9827695147        1.8481071545
 C         -4.8057862250       -3.1883309033        0.8993596078
 C         -5.2522361823       -2.8385029950       -0.5203250234
 H         -4.4937301703       -2.2048604951       -0.9863344643
 H         -5.2838955468       -3.7701083524       -1.0895828461
 C         -6.6173399559       -2.1411939115       -0.6037738674
 H         -7.1710776574       -2.2991019386        0.3224311220
 H         -7.1952799258       -2.5992576009       -1.4091421164
 C         -6.5467383946       -0.6426170869       -0.9028090474
 H         -5.9135873014       -0.4729717730       -1.7774138331
 H         -7.5530209347       -0.2985839309       -1.1561610688
 C         -6.0354229441        0.2423962170        0.2408258541
 H         -6.2191062856        1.2838800402       -0.0389606365
 H         -6.5970449736        0.0267941438        1.1520697671
 H         -5.4841931400       -3.9308845702        1.3234521593
 H         -3.8083518610       -3.6310028907        0.8442871457
 H         -4.2381514939       -2.2769037301        2.7651694522
 H         -5.7597179343       -1.6563027339        2.0956170891
 O         -2.6664838486       -0.9189128507        1.4598277329
 C         -1.7805549146        0.0177346082        0.9372874522
 O         -0.5930231535       -0.2016802010        1.2403000150
 H          1.2026196638        1.7586140782        0.3239976547
 C          1.0033221867        1.3239437397       -0.6430583684
 C         -0.2668841067        1.4204162466       -1.1865975213
 C         -0.5141247848        0.8187454479       -2.4170128716
 C          0.4881596009        0.1406230816       -3.0845638685
 C          1.7560530063        0.0446706141       -2.5381366312
 C          2.0089432589        0.6314016896       -1.3059855659
 N          3.2945484751        0.5495473076       -0.7375188614
 S          4.1278314330       -0.9125969614       -0.8755520484
 O          4.7117063518       -0.9784825197       -2.1932146908
 O          3.2799731562       -2.0248041068       -0.5087498781
 C          5.4104548021       -0.6744348534        0.3383724130
 C          6.6144558507       -0.1208308766       -0.0527111777
 C          7.5958259814        0.0909375199        0.9027232836
 C          7.3573302045       -0.2505563033        2.2254749635
 C          6.1437496504       -0.8061695516        2.6028829751
 C          5.1577510142       -1.0200890470        1.6526273631
 H          4.2027367965       -1.4566577154        1.9005758859
 H          5.9612876396       -1.0727406090        3.6315631150
 H          8.1222055870       -0.0855646018        2.9677980869
 H          8.5412825396        0.5204467388        0.6133642006
 H          6.7554416242        0.1215730563       -1.0929778408
 H          3.2911433351        0.8603833021        0.2249126672
 H          2.5433454750       -0.4938941186       -3.0405517461
 H          0.2824218097       -0.3233501275       -4.0378202140
 H         -1.5081633351        0.8788155241       -2.8392682055
 C         -1.3971771162        2.1032154178       -0.4608156120
 H         -2.0355297011        2.5946541125       -1.2129420565
 C         -0.9254985782        3.1992009742        0.4829398881
 C         -1.8496031277        3.7526250393        1.5251764528
 C         -0.6394948862        2.9711503981        1.9357626405
 H          0.1865448262        3.5071751763        2.3805776585
 H         -0.7756982628        1.9764738686        2.3296844944
 H         -2.8178082696        3.2843936598        1.6274614220
 H         -1.8586450698        4.8187476718        1.6941624741
 H         -0.2893884443        3.9160394384       -0.0278335118
 O         -4.1887282525        2.0723489422       -0.8223320852
