  62
        -98.93135786
 C          2.0573438645        0.7718705015        0.5759767311
 C          3.1576170132        0.8260005826       -0.3105679948
 C          4.1521946560       -0.2615491088       -0.2004548466
 C          3.9443630787       -1.2591895862        0.6759685240
 C          4.8036614298       -2.4640077369        0.9673270594
 C          5.4176168326       -3.1908608512       -0.2390302654
 C          6.9298867413       -2.9952245668       -0.3641494164
 H          7.3670190201       -3.0244456530        0.6361021361
 H          7.3448603338       -3.8352793756       -0.9255076192
 C          7.3640846240       -1.7103874687       -1.0672547764
 H          7.1464055385       -1.7908617620       -2.1343825633
 H          8.4482416154       -1.6262146921       -0.9619538314
 C          6.7188321123       -0.4280484002       -0.5388284427
 H          6.6615117541       -0.4499837312        0.5488784959
 H          7.3680690681        0.4080901425       -0.8068884886
 C          5.3290653356       -0.1506969214       -1.1315754041
 H          5.2878206764        0.8760640654       -1.5075146712
 H          5.1563410131       -0.7945957170       -1.9983510381
 H          4.9160941862       -2.8796117792       -1.1538683353
 H          5.2266077569       -4.2580121334       -0.1140209383
 H          5.5940391951       -2.1633108762        1.6600271569
 H          4.1519053787       -3.1458106993        1.5186997494
 O          2.8525965234       -1.2858052214        1.4953652909
 C          1.9061106205       -0.2811652650        1.4820158659
 O          0.9912987089       -0.4314200845        2.3185505632
 H         -1.5733106104        0.9530231492        0.8242992177
 C         -1.3068339721        1.1663576306       -0.2004988149
 C         -0.0296194088        1.6183236950       -0.5026461620
 C          0.2982444376        1.8641867210       -1.8320307720
 C         -0.6354180870        1.6562330757       -2.8304026171
 C         -1.9063936430        1.2021590139       -2.5266299638
 C         -2.2455066162        0.9564574574       -1.2009005951
 N         -3.5463583719        0.5386427366       -0.8678500139
 S         -3.7708573215       -0.5284895023        0.4206905647
 O         -3.6675550395        0.2056015133        1.6563387813
 O         -2.9079377612       -1.6795045198        0.2706350316
 C         -5.4722728181       -0.9860158072        0.1426581951
 C         -5.7672931137       -2.1918047551       -0.4643273353
 C         -7.0942103003       -2.5171972869       -0.6995038280
 C         -8.0975194278       -1.6347119479       -0.3288268523
 C         -7.7859363346       -0.4281437935        0.2805506653
 C         -6.4617761960       -0.0975208852        0.5199499885
 H         -6.1714916355        0.8231157607        0.9985313612
 H         -8.5687680381        0.2542220507        0.5698434618
 H         -9.1289763041       -1.8901753802       -0.5134014560
 H         -7.3393708751       -3.4558791909       -1.1696724435
 H         -4.9541045810       -2.8490420416       -0.7278737903
 H         -4.0731191923        0.2390202639       -1.6777783246
 H         -2.6328947588        1.0401518845       -3.3085364351
 H         -0.3684194528        1.8451477013       -3.8592763183
 H          1.2960706269        2.1940193844       -2.0747023562
 C          0.9649700303        1.8297532949        0.6144312583
 H          0.4327624792        1.6637997250        1.5616147784
 C          1.5058542660        3.2465307408        0.6129490051
 C          0.6253273520        4.3537476446        1.1049432490
 C          1.8054046986        3.9158831554        1.9185622802
 H          2.6639955715        4.5677349710        1.9777901805
 H          1.6214333812        3.3526676806        2.8224718790
 H          0.6710697205        5.3091248594        0.6054702377
 H         -0.3599582945        4.0866774833        1.4577200207
 H          2.1684163634        3.4562437915       -0.2156296060
 O          3.3357270327        1.7372525126       -1.1614842054
