  62
        -98.94379587
 C          1.6374213528        1.4256048940        0.3983402998
 C          1.7749450894        0.1857886774        1.0781127121
 C          3.0516106642       -0.5146049870        0.9066344823
 C          4.0258807495        0.0504016543        0.1714726970
 C          5.4024867155       -0.5114421146       -0.0602222676
 C          5.4805158052       -1.5289321136       -1.2065566019
 C          4.8441819800       -2.8879723668       -0.9129851924
 H          5.1586339887       -3.5671041635       -1.7079699604
 H          5.2415113728       -3.2786295514        0.0243446416
 C          3.3102958800       -2.8673838564       -0.8576850365
 H          2.9411797426       -1.9535409979       -1.3290633902
 H          2.9146494556       -3.7059710743       -1.4346866419
 C          2.7219540441       -2.9681746301        0.5497180046
 H          2.9646138112       -3.9422955742        0.9800755469
 H          1.6357625837       -2.8901391878        0.4668159084
 C          3.1994340246       -1.8759444872        1.5155062886
 H          2.5744403674       -1.9086575488        2.4112787470
 H          4.2347639035       -2.0535451505        1.8060742235
 H          5.0150916134       -1.0923620981       -2.0932801272
 H          6.5382433234       -1.6864905273       -1.4301881029
 H          6.0455785060        0.3359148603       -0.3079540414
 H          5.7700434622       -0.9685366150        0.8591001533
 O          3.8668755795        1.2492096916       -0.4450122091
 C          2.6677895383        1.9484122372       -0.3837298440
 O          2.6774948606        2.9963350548       -1.0596743704
 O          0.8724976888       -0.3064091091        1.8054388533
 C          0.3077457880        2.1388509890        0.5678913293
 C         -0.6449541185        1.8254405088       -0.5614843465
 C         -0.3133576887        2.0906971624       -1.8860228002
 C         -1.2116389342        1.8101391004       -2.8990336730
 C         -2.4497674606        1.2611647118       -2.6144974996
 C         -2.7936676917        0.9985092126       -1.2932990844
 C         -1.8888267320        1.2805167358       -0.2784052706
 H         -2.1691185246        1.0793907790        0.7436527237
 N         -4.0543643122        0.4774696625       -0.9799098096
 S         -4.3170191582       -0.4991415363        0.3461671135
 O         -5.6108797741       -1.0932546572        0.0884690683
 O         -4.2068115113        0.2700332759        1.5599164050
 C         -3.0609444217       -1.7624834674        0.2840440297
 C         -2.1158987818       -1.8544973112        1.2836240553
 C         -1.1616828932       -2.8568917595        1.2150585827
 C         -1.1663689928       -3.7421253124        0.1490756391
 C         -2.1234200480       -3.6369125510       -0.8496973426
 C         -3.0816233714       -2.6398354889       -0.7833891611
 H         -3.8510688842       -2.5405525257       -1.5316790296
 H         -2.1240290308       -4.3295563878       -1.6759667434
 H         -0.4217923866       -4.5214297344        0.0977590185
 H         -0.4145776331       -2.9230183686        1.9894324515
 H         -2.1289488575       -1.1471418475        2.0966061215
 H         -4.6233800679        0.2151840220       -1.7703515390
 H         -3.1494837491        1.0459073219       -3.4073532317
 H         -0.9441287851        2.0199230942       -3.9237309677
 H          0.6515313647        2.5188552909       -2.1107052553
 H         -0.1267594056        1.7217488820        1.4871503621
 C          0.4299508262        3.6404821308        0.7411352338
 C         -0.6940202705        4.3858431073        1.3935114852
 C          0.6083084262        4.2102965942        2.1146073262
 H          1.2528005975        5.0679076407        2.2361569515
 H          0.6423714258        3.5182680426        2.9436586445
 H         -0.9466799054        5.3662207622        1.0197657282
 H         -1.5448930375        3.8136991008        1.7332642539
 H          0.9532520928        4.1271373173       -0.0713401940
