  62
        -98.93847907
 C         -1.7574890652       -0.8604804658        0.2689024154
 C         -3.1037096357       -0.9707822402       -0.1739777321
 C         -3.7492006032        0.2720878121       -0.6222255954
 C         -3.0744410714        1.4314845568       -0.5358987443
 C         -3.6193689961        2.7758941282       -0.9209706518
 C         -4.2888659911        3.4696768184        0.2736133217
 C         -5.2777271014        2.5811378753        1.0283060113
 H         -4.7309197233        1.7615624470        1.5000306167
 H         -5.7096560833        3.1834811146        1.8304237804
 C         -6.4037092613        2.0033229024        0.1596306294
 H         -6.4862618572        2.5725826967       -0.7669556033
 H         -7.3498854380        2.1140443591        0.6935373228
 C         -6.2506573688        0.5175846579       -0.1712793593
 H         -6.0721229379       -0.0466159424        0.7473833657
 H         -7.1951820892        0.1643716597       -0.5935864678
 C         -5.1435581652        0.1667849046       -1.1734224363
 H         -5.2750034339       -0.8812433293       -1.4582446461
 H         -5.2493339670        0.7824075257       -2.0693258916
 H         -4.8017958798        4.3623565087       -0.0890161502
 H         -3.5096743890        3.7845369104        0.9714479235
 H         -2.7913923609        3.3936238560       -1.2733786835
 H         -4.3357039791        2.6508462221       -1.7308472908
 O         -1.8249189568        1.5128820166       -0.0166182341
 C         -1.1465718295        0.3833990401        0.4257409579
 O         -0.0489027146        0.6479356122        0.9520040021
 H          1.0373755050       -1.5610988397       -1.0037125970
 C          1.3517066270       -1.6959687440        0.0192790209
 C          0.4150938119       -1.9412306725        1.0155741863
 C          0.8589051512       -2.0912896084        2.3230354077
 C          2.2029643633       -1.9759861850        2.6314012930
 C          3.1286636118       -1.7115236203        1.6399747941
 C          2.6955978136       -1.5660907634        0.3263627095
 N          3.6131919042       -1.3162554889       -0.7157720279
 S          3.5007068944        0.1206328849       -1.5677223750
 O          2.1629051395        0.2923685326       -2.0718704915
 O          4.5517901241        0.0464717024       -2.5612899347
 C          3.9202053614        1.3798221759       -0.3749421558
 C          5.1958898036        1.9112750597       -0.3993589939
 C          5.5559044642        2.8390114022        0.5639971375
 C          4.6403494203        3.2098566458        1.5375887455
 C          3.3669061655        2.6622795026        1.5498719087
 C          2.9956566703        1.7352164920        0.5866971621
 H          2.0088209699        1.2983239639        0.5780001591
 H          2.6510524100        2.9450102783        2.3052084687
 H          4.9196424352        3.9295337853        2.2910839312
 H          6.5457340353        3.2663135501        0.5545997576
 H          5.8716054625        1.5921643316       -1.1765074125
 H          4.5774093173       -1.4545475759       -0.4439032745
 H          4.1780944444       -1.6167586533        1.8761540821
 H          2.5310058838       -2.0898203223        3.6534877692
 H          0.1399076072       -2.2892818171        3.1054765085
 C         -1.0339351510       -2.1446933291        0.6558958685
 H         -1.5554866160       -2.5708722883        1.5271004133
 C         -1.1071911922       -3.1640875993       -0.4791632509
 C         -0.4195048012       -4.4895746241       -0.3182101360
 C         -1.9132249758       -4.4173905794       -0.3457877892
 H         -2.4408916429       -4.7761914846       -1.2161059250
 H         -2.4565253910       -4.5643418924        0.5745291873
 H          0.0958367158       -4.9065904434       -1.1699626886
 H          0.0650759497       -4.6868766761        0.6261257315
 H         -1.0744456327       -2.7094598741       -1.4641646217
 O         -3.7454487093       -2.0513662492       -0.1867648352
