  62
        -98.94018136
 C         -2.4370023253       -0.8835096838        0.0915050206
 C         -2.6946550864        0.5047548340        0.1922535800
 C         -4.0799143763        0.8742135426        0.5191951329
 C         -4.9922129497       -0.0949329647        0.7176384272
 C         -6.4459147756        0.1405937030        1.0071326397
 C         -7.2701584402        0.1855491573       -0.2870492332
 C         -6.6871595463        1.1076575398       -1.3578011072
 H         -5.7318589460        0.7005590230       -1.6971623041
 H         -7.3672560101        1.0852134568       -2.2120521495
 C         -6.4849374350        2.5597383279       -0.9028361201
 H         -7.0787661523        2.7542830635       -0.0091098655
 H         -6.8506868589        3.2264142426       -1.6866072198
 C         -5.0280829096        2.9433154903       -0.6362460131
 H         -4.4121917606        2.6631850154       -1.4946550827
 H         -4.9753416293        4.0308267819       -0.5373912607
 C         -4.3981528524        2.3392013868        0.6252752951
 H         -3.4397861676        2.8401390094        0.7912153365
 H         -5.0410024411        2.5328676222        1.4863593573
 H         -8.2835300051        0.5067845752       -0.0396895434
 H         -7.3243485982       -0.8250740090       -0.6982383751
 H         -6.8089503255       -0.6785534996        1.6300314304
 H         -6.5551136231        1.0757147110        1.5527942972
 O         -4.7000701698       -1.4184206947        0.6320424555
 C         -3.4226204842       -1.8453397265        0.3105942022
 O         -3.2905799643       -3.0853867637        0.2600937193
 H          1.4575477854       -0.2771360096       -0.7051816691
 C          1.1980513337       -0.3461518258        0.3379236745
 C         -0.0290942420       -0.8552167869        0.7311698915
 C         -0.3136547916       -0.9278964311        2.0927218592
 C          0.6009227968       -0.4899721884        3.0303334892
 C          1.8292690116        0.0091962620        2.6337401656
 C          2.1259551880        0.0807047659        1.2785421444
 N          3.3567851927        0.5941786900        0.8394140145
 S          4.0690297155       -0.0957577661       -0.5273777705
 O          3.5365203343        0.5403928269       -1.7058429993
 O          3.9566831080       -1.5356896545       -0.4708350809
 C          5.7668975065        0.3987200001       -0.2926639178
 C          6.6559024962       -0.4900253280        0.2820421076
 C          7.9670023274       -0.0895494976        0.4863769804
 C          8.3641131371        1.1868405081        0.1172397942
 C          7.4606254080        2.0677192668       -0.4588386761
 C          6.1484987566        1.6734051423       -0.6670739365
 H          5.4141645151        2.3197041232       -1.1190866114
 H          7.7739562413        3.0582300660       -0.7469152102
 H          9.3850222335        1.4960943737        0.2765387318
 H          8.6723660539       -0.7732290984        0.9306648873
 H          6.3041733029       -1.4748570566        0.5445779978
 H          4.0228929070        0.7178327602        1.5895237586
 H          2.5470050272        0.3456470405        3.3664270318
 H          0.3603615837       -0.5471416508        4.0814397961
 H         -1.2679414075       -1.3312321919        2.4048710452
 C         -1.0439171106       -1.3688903589       -0.2616578895
 H         -1.0710202272       -2.4660308641       -0.1753132727
 C         -0.7155165049       -1.0051187059       -1.6950305134
 C          0.2254365168       -1.8533637545       -2.4947859465
 C         -1.2405778173       -1.8630019644       -2.8051327153
 H         -1.5796923890       -1.3846550150       -3.7117021325
 H         -1.8166346794       -2.7338178424       -2.5268428156
 H          0.8999020711       -1.3648230669       -3.1827149761
 H          0.6518538018       -2.7198078260       -2.0111823075
 H         -0.6949010780        0.0671982684       -1.8570276926
 O         -1.8159204300        1.3898546574        0.0212979945
