  62
        -98.94368020
 C         -1.6387654131       -1.2015440516       -0.3131119030
 C         -0.6018720744       -1.6978473214       -1.1333808788
 C          0.3367508569       -2.6481829102       -0.5114551951
 C          0.2025293252       -2.9471222477        0.7942300019
 C          0.9812163695       -3.8970783801        1.6801178582
 C          2.3508136026       -4.4208968584        1.2563292105
 C          3.4428580855       -3.3565552568        1.1776788546
 H          3.6244435183       -2.9625621174        2.1809169500
 H          4.3621363880       -3.8383557056        0.8359709463
 C          3.1347126557       -2.1738683630        0.2624602611
 H          2.3208856627       -1.5804100317        0.6874236071
 H          4.0161602894       -1.5257100636        0.2447350258
 C          2.8002152100       -2.5515990514       -1.1802038068
 H          3.5657311031       -3.2292045311       -1.5634822593
 H          2.8404339261       -1.6367646758       -1.7751073091
 C          1.4177969001       -3.1964781799       -1.4002468033
 H          1.4674013457       -4.2787515351       -1.2951616015
 H          1.1039104179       -2.9823724090       -2.4261890272
 H          2.2784581914       -4.9560450807        0.3140680199
 H          2.6519968576       -5.1486468438        2.0148870546
 H          1.0786163922       -3.3825913138        2.6416924640
 H          0.3200113144       -4.7540698527        1.8528226583
 O         -0.7989762505       -2.4193860310        1.5553530517
 C         -1.7302754063       -1.5379251583        1.0364746314
 O         -2.5800659842       -1.1457387003        1.8596795942
 O         -0.4638069216       -1.3676138713       -2.3432348002
 C         -2.6320706998       -0.2012316063       -0.8809865411
 C         -2.5500522715        1.0690683457       -0.0703105174
 C         -3.6461200013        1.7282198706        0.4679417725
 C         -3.4607165931        2.8378970602        1.2758322116
 C         -2.1920034618        3.2956451368        1.5793316299
 C         -1.0880998749        2.6535125012        1.0267204947
 C         -1.2819983609        1.5786152345        0.1782810168
 H         -0.4277219777        1.0816927520       -0.2510585690
 N          0.2155310409        3.0854083048        1.3020898619
 S          1.5282714665        2.0465622143        1.2453756612
 O          1.1765053796        0.6834418342        1.5656410837
 O          2.5045665732        2.6732157432        2.1127832336
 C          2.0849897411        2.1974835535       -0.4392215232
 C          1.9509494564        1.1463870175       -1.3220215753
 C          2.3637623920        1.3129465260       -2.6347176306
 C          2.9087193490        2.5213337363       -3.0387559719
 C          3.0476093658        3.5664282883       -2.1371439709
 C          2.6303377125        3.4067403889       -0.8262107692
 H          2.7249276645        4.1898612431       -0.0925959659
 H          3.4752722286        4.5039102681       -2.4539746220
 H          3.2268446248        2.6468076318       -4.0616631599
 H          2.2424787857        0.4977701146       -3.3308715789
 H          1.5225914703        0.2163634714       -0.9813599085
 H          0.2986419294        3.7692944410        2.0389455667
 H         -2.0522078957        4.1356208176        2.2425901674
 H         -4.3190551473        3.3388347171        1.6977035461
 H         -4.6420484121        1.3641752835        0.2756609206
 H         -2.2903747974        0.0094771380       -1.9051137794
 C         -4.0216046767       -0.7982825103       -0.9389102808
 C         -5.0085807082       -0.3159918948       -1.9587507237
 C         -4.3880994409       -1.6725115410       -2.0993252394
 H         -4.9990016274       -2.5434653982       -1.9152399266
 H         -3.6397091256       -1.8185059800       -2.8643456820
 H         -6.0499475886       -0.2569474356       -1.6804954541
 H         -4.6872064229        0.4604039484       -2.6361726048
 H         -4.3905826510       -1.0841099379        0.0399986283
