  62
        -98.94316039
 C          1.8291203296        0.7822397099        0.6913047385
 C          2.8038015892        1.1851599693       -0.2548180521
 C          4.1558252193        0.6476991194       -0.0466258322
 C          4.4100965597       -0.1582943300        0.9987487082
 C          5.7399540598       -0.7702176298        1.3462747480
 C          6.0475845694       -2.0663375403        0.5838039687
 C          6.3903389689       -1.8858569612       -0.8956481315
 H          7.1789402389       -1.1394577013       -0.9959123923
 H          6.7950745587       -2.8366842514       -1.2481846711
 C          5.1968323486       -1.4994956617       -1.7804826513
 H          5.2005517482       -2.1130277023       -2.6842565109
 H          4.2655312588       -1.7165337814       -1.2517935808
 C          5.1844670985       -0.0370486620       -2.2254137422
 H          6.0448951282        0.1570277176       -2.8696198926
 H          4.2781212482        0.1340842777       -2.8113926520
 C          5.2004888189        0.9736081687       -1.0714113528
 H          6.1878271391        1.0048381190       -0.6115985632
 H          4.9707195088        1.9614581385       -1.4777051234
 H          6.8996640796       -2.5399215500        1.0771074787
 H          5.1922306595       -2.7393316402        0.6805383895
 H          6.5350515397       -0.0451812099        1.1700505173
 H          5.7074259702       -0.9982966091        2.4138991882
 O          3.4528630700       -0.5038366794        1.9008452587
 C          2.1492072499       -0.0601339594        1.7605396489
 O          1.3763042503       -0.4687981288        2.6518727095
 O          2.5861802489        1.9545912087       -1.2262455525
 C          0.3737708596        1.2219499399        0.6184583488
 C         -0.3667894709        0.4056690993       -0.4141801604
 C         -0.1381392314        0.5676184684       -1.7773484006
 C         -0.8065487217       -0.2184403421       -2.6972621199
 C         -1.7249541116       -1.1667090918       -2.2817380889
 C         -1.9591279411       -1.3384877310       -0.9232320587
 C         -1.2816937507       -0.5527296504       -0.0004156495
 H         -1.4578534603       -0.7143253298        1.0527177807
 N         -2.8801992510       -2.2996038507       -0.4700412178
 S         -4.0154225205       -1.8453882899        0.6715030424
 O         -3.4055995300       -1.7262818791        1.9708465721
 O         -5.0680466806       -2.8303568700        0.5487597634
 C         -4.5962285407       -0.2565622003        0.1065985916
 C         -4.2092740904        0.8931415501        0.7631483307
 C         -4.6290112406        2.1189970598        0.2706083501
 C         -5.4180952910        2.1726380992       -0.8675079896
 C         -5.8016494313        1.0077699388       -1.5146857188
 C         -5.3865018611       -0.2197897109       -1.0259204381
 H         -5.6755349013       -1.1478135012       -1.4919063075
 H         -6.4197802216        1.0533788182       -2.3967020685
 H         -5.7381101211        3.1290701189       -1.2494112901
 H         -4.3360322903        3.0264418802        0.7741779294
 H         -3.5956082901        0.8053558007        1.6456268806
 H         -3.3133334912       -2.8353592111       -1.2086575273
 H         -2.2474709119       -1.7792236023       -3.0008501083
 H         -0.6143795721       -0.0882958528       -3.7514029300
 H          0.5897511185        1.2926896082       -2.1053475913
 H         -0.0543022801        0.9795576405        1.6007820391
 C          0.2178948595        2.7112309798        0.3834728779
 C         -1.0489708303        3.3818909901        0.8162913380
 C          0.2263634100        3.6365186405        1.5612307974
 H          0.7057863800        4.5981914404        1.4568465666
 H          0.3426906403        3.1963753611        2.5415835076
 H         -1.4512099105        4.1706790997        0.1999206676
 H         -1.7953496802        2.7664584404        1.2948579587
 H          0.6944674092        3.0609719192       -0.5218526625
