  62
        -98.93330197
 C         -2.6320790792       -1.2138404119       -0.1075295875
 C         -2.7422868720        0.0108624329       -0.8031024646
 C         -4.0771641770        0.6432717606       -0.8253321851
 C         -5.0991916025        0.0225356481       -0.2070763522
 C         -6.5232210039        0.4902504771       -0.0664818219
 C         -6.6806868281        1.5928057486        0.9937221905
 C         -5.6070179052        2.6775491214        0.9582585835
 H         -5.7613755287        3.3257530628        1.8250144785
 H         -4.6247303579        2.2149093262        1.0724478405
 C         -5.6119220858        3.5577933541       -0.2892709038
 H         -6.5802203698        4.0568419118       -0.3709641376
 H         -4.8516109428        4.3295477866       -0.1442510671
 C         -5.3203108400        2.8461302016       -1.6118225236
 H         -5.1264049031        3.6195562121       -2.3608244243
 H         -6.1891423160        2.2929420684       -1.9581073110
 C         -4.0910600218        1.9425853509       -1.5940491996
 H         -3.2303662777        2.5144384818       -1.2285796409
 H         -3.8404460555        1.6758622653       -2.6279935998
 H         -6.6430682615        1.1208289100        1.9786222412
 H         -7.6655291945        2.0476997312        0.8753728858
 H         -6.9042161338        0.8189283822       -1.0286951833
 H         -7.1092138382       -0.3772923331        0.2448399165
 O         -4.9440783327       -1.1647293052        0.4475996622
 C         -3.7245554415       -1.8062431127        0.5229049476
 O         -3.7372570516       -2.8753234835        1.1674127459
 O         -1.7708219628        0.5644970355       -1.3822752564
 C         -1.2925369641       -1.9224680633       -0.0272798392
 C         -0.2652662505       -1.0128299852        0.6023516343
 C         -0.5662547446       -0.4032187588        1.8176054617
 C          0.3437491135        0.4324257670        2.4352223492
 C          1.5768067782        0.6816047164        1.8572006868
 C          1.8936139103        0.0679085040        0.6542269208
 C          0.9775729235       -0.7768008268        0.0378660171
 H          1.2399487878       -1.2437418713       -0.8991046896
 N          3.1454053540        0.3203038942        0.0482557314
 S          4.5290640523       -0.1490443793        0.8985952690
 O          4.6520951887       -1.5924371463        0.8871156933
 O          4.5178579545        0.4757460099        2.1953357619
 C          5.7992764594        0.5782673770       -0.1175908258
 C          6.5157283087       -0.2146111687       -0.9928821058
 C          7.4830665133        0.3741165085       -1.7924326046
 C          7.7131699833        1.7386192892       -1.7057080705
 C          6.9856956882        2.5214884311       -0.8213575171
 C          6.0188755741        1.9386961422       -0.0181223613
 H          5.4368136563        2.5065468227        0.6884957217
 H          7.1690512128        3.5818664399       -0.7555232016
 H          8.4659350151        2.1946610731       -2.3292321684
 H          8.0522257822       -0.2323793184       -2.4785030238
 H          6.3094192493       -1.2725227544       -1.0217967737
 H          3.1917080067       -0.0976732507       -0.8729397755
 H          2.2963018114        1.3259100853        2.3341419992
 H          0.0907393280        0.9001322586        3.3751748831
 H         -1.5305006244       -0.5938375461        2.2705915352
 H         -1.4422216586       -2.7795008447        0.6460905276
 C         -0.8976473999       -2.4419870572       -1.3939620025
 C         -0.0067574369       -3.6406805295       -1.5179001543
 C         -1.4618093479       -3.7490900687       -1.8597852016
 H         -1.7425565990       -3.8495269833       -2.8974176113
 H         -2.1122414682       -4.2782153190       -1.1784734865
 H          0.7106839516       -3.6713110056       -2.3243864771
 H          0.3372415653       -4.1050313917       -0.6057284941
 H         -0.7999567730       -1.6497791397       -2.1276436445
