  62
        -98.94796614
 C          1.2488990266        0.7758384638        0.3960876721
 C          2.0864791816        0.5889784594       -0.7293355137
 C          3.0458808507       -0.5180258874       -0.6299019267
 C          3.0374516150       -1.3178342759        0.4517385463
 C          3.9335029682       -2.5044810644        0.6827689492
 C          5.3098626986       -2.1460919009        1.2602371619
 C          6.2709051212       -1.4712116821        0.2806648555
 H          7.2581118409       -1.4760076961        0.7469396987
 H          6.3375131192       -2.0684305620       -0.6292348685
 C          5.9001365450       -0.0249484106       -0.0759963118
 H          5.1899606513        0.3605676571        0.6590158101
 H          6.7918464050        0.6033804081       -0.0208579456
 C          5.3076726191        0.1510784924       -1.4741950664
 H          5.0486924829        1.2045001387       -1.6066543180
 H          6.0566081949       -0.1090557047       -2.2254142801
 C          4.0457146668       -0.6821379711       -1.7345191111
 H          3.5804220185       -0.3248359706       -2.6566482454
 H          4.3062893209       -1.7330688142       -1.8601097213
 H          5.1657885916       -1.5032330928        2.1316851251
 H          5.7691887005       -3.0753747560        1.6051102987
 H          3.4153901170       -3.1494967060        1.3961409944
 H          4.0593963046       -3.0546836099       -0.2503778336
 O          2.1692133923       -1.1451335784        1.4840109236
 C          1.2622189847       -0.0981999048        1.4825474740
 O          0.5260540622       -0.0539681310        2.4906065549
 O          2.0377118101        1.3042379386       -1.7638939826
 C          0.2303411923        1.9001046940        0.4067255085
 C         -0.7950052827        1.6881111715       -0.6818828825
 C         -1.3284121216        2.7177072764       -1.4469583478
 C         -2.2937218618        2.4491510992       -2.4023507110
 C         -2.7685558971        1.1643309920       -2.5956095632
 C         -2.2447768145        0.1287195410       -1.8304267504
 C         -1.2609088551        0.3981533132       -0.8937076363
 H         -0.8406129320       -0.4195074347       -0.3286591810
 N         -2.6988191295       -1.1918056126       -1.9733869852
 S         -2.8427371724       -2.1451948477       -0.6049602139
 O         -1.5480625590       -2.6139400325       -0.1773114844
 O         -3.7872480202       -3.1738869275       -0.9878040142
 C         -3.5843142941       -1.0727703698        0.6134579655
 C         -2.8575648724       -0.5957156350        1.6845604562
 C         -3.4687384278        0.2823396278        2.5671222803
 C         -4.7849810541        0.6659267161        2.3670495565
 C         -5.5052626460        0.1696012206        1.2906363647
 C         -4.9002628511       -0.7046728261        0.4039129221
 H         -5.4289351552       -1.1212624706       -0.4380472578
 H         -6.5312195243        0.4639194223        1.1396228575
 H         -5.2512236769        1.3527104487        3.0556994394
 H         -2.8999442061        0.6615935670        3.4013696679
 H         -1.8311583477       -0.8988839176        1.8239909955
 H         -3.4828078449       -1.3084886571       -2.5984232405
 H         -3.5281260466        0.9604642133       -3.3343702904
 H         -2.6916285768        3.2559292796       -2.9987065255
 H         -0.9833741670        3.7280295642       -1.3008843759
 H         -0.2954506734        1.8218678719        1.3707123467
 C          0.9192211586        3.2470943446        0.3358824070
 C          0.3101984806        4.4430562723        1.0022826570
 C          1.5372885329        3.8070570917        1.5807443491
 H          2.4793894352        4.3281688981        1.5000058222
 H          1.4366276125        3.2274891141        2.4873082724
 H          0.4123710832        5.4063893099        0.5258008173
 H         -0.6243515536        4.3036170843        1.5242477485
 H          1.4519416207        3.3926473928       -0.5964789911
