  62
        -98.93375761
 C         -2.5889223597       -1.1559696510        0.1265077836
 C         -3.1871405169       -0.3189929931        1.1026137091
 C         -4.0996752631        0.7135760563        0.6033189957
 C         -4.3236515648        0.8193729024       -0.7189952319
 C         -5.2381701110        1.8104504289       -1.3861912778
 C         -4.5940906479        3.1813073576       -1.6349274647
 C         -4.3890863757        4.0402441937       -0.3863870562
 H         -4.1371384288        5.0462959125       -0.7275711934
 H         -5.3277578773        4.1092015585        0.1642728659
 C         -3.2769937775        3.5445906942        0.5487121328
 H         -2.6333023678        2.8439587737        0.0113930728
 H         -2.6507177709        4.3877962471        0.8489207508
 C         -3.7771331585        2.8746269070        1.8287303646
 H         -2.9091327875        2.5309915687        2.3975907302
 H         -4.3117592819        3.6048407475        2.4404071254
 C         -4.6958957905        1.6684745578        1.5931630528
 H         -5.6766830268        2.0028961634        1.2558420225
 H         -4.8136069726        1.1367613197        2.5406441545
 H         -3.6346689533        3.0303976115       -2.1350293001
 H         -5.2450009150        3.7271326424       -2.3217279195
 H         -6.1428086496        1.9341082099       -0.7902645807
 H         -5.5127466127        1.3790191146       -2.3510791273
 O         -3.7331002725       -0.0007839355       -1.6246413626
 C         -2.8348758187       -0.9902111147       -1.2381798218
 O         -2.3526477866       -1.6225620411       -2.1920215595
 O         -2.9664578531       -0.4302489591        2.3400536423
 C         -1.6101841829       -2.2129896572        0.6243819781
 C         -0.2411110754       -1.9041083940        0.0709386765
 C          0.3040369542       -2.4160643163       -1.1003712647
 C          1.5558766359       -2.0082553379       -1.5300683465
 C          2.2906797628       -1.0770044302       -0.8206217126
 C          1.7560948347       -0.5479911599        0.3466431681
 C          0.5087614542       -0.9698098979        0.7812642537
 H          0.0950785166       -0.5488309548        1.6895926025
 N          2.4713630456        0.4238922860        1.0652272530
 S          4.1008637958        0.1772603490        1.3759026101
 O          4.4161507744       -1.2293192107        1.4676910966
 O          4.3846176921        0.9776002685        2.5469976239
 C          4.9193056710        0.8984329801       -0.0312480382
 C          5.8220543962        0.1510556644       -0.7618347344
 C          6.4535327122        0.7371462303       -1.8479326983
 C          6.1734880546        2.0533803624       -2.1813986824
 C          5.2668842002        2.7915960021       -1.4351184218
 C          4.6330596943        2.2119021221       -0.3478649631
 H          3.9254510100        2.7522527728        0.2586722539
 H          5.0516841084        3.8150305627       -1.6972386433
 H          6.6645597859        2.5070878997       -3.0277690152
 H          7.1591648830        0.1653163597       -2.4289132305
 H          6.0049555895       -0.8705956020       -0.4687639038
 H          1.9916614122        0.7623831584        1.8864603466
 H          3.2623331289       -0.7578001993       -1.1600486723
 H          1.9602728389       -2.4193064439       -2.4426873070
 H         -0.2531615692       -3.1089951721       -1.7040635784
 H         -1.5519340982       -2.0178680010        1.7072548940
 C         -2.1784093811       -3.6214318514        0.5181905873
 C         -2.3748215041       -4.4100898617       -0.7401728152
 C         -1.3452274892       -4.8408326068        0.2605420449
 H         -1.5434593521       -5.7258611604        0.8468658204
 H         -0.3030975560       -4.6980636398        0.0218232812
 H         -3.2819307944       -4.9929723793       -0.8190684417
 H         -2.0719950023       -3.9725920826       -1.6763241216
 H         -2.9716084742       -3.7411173017        1.2530725358
