  62
        -98.93989283
 C          2.2365503629        1.0792155998       -0.4590584605
 C          3.5078936267        0.8950073556        0.1428491774
 C          4.2587015416       -0.2963972686       -0.2701077502
 C          3.7180955513       -1.1287361913       -1.1782151571
 C          4.3405430454       -2.4138245814       -1.6406788727
 C          3.8788639341       -3.5952170121       -0.7759798977
 C          3.9985556832       -3.3447341867        0.7274859941
 H          3.2989988060       -2.5551202099        1.0128280059
 H          3.6756295887       -4.2564822503        1.2347776830
 C          5.4103223948       -2.9688327822        1.1992277735
 H          5.6402936238       -3.5389739082        2.1016750107
 H          6.1413270736       -3.2524189400        0.4413461015
 C          5.5899907630       -1.4903459785        1.5485111470
 H          4.7991782836       -1.1777988300        2.2350746484
 H          6.5428083316       -1.3780482948        2.0724481241
 C          5.6047999254       -0.5215285011        0.3594417821
 H          6.3257652966       -0.8632462647       -0.3856764412
 H          5.9285397792        0.4551619452        0.7304024345
 H          2.8306176263       -3.8020614888       -1.0052426259
 H          4.4668966307       -4.4733840398       -1.0489895804
 H          4.0368020118       -2.5906810822       -2.6737750433
 H          5.4241322640       -2.3214596797       -1.6003897119
 O          2.5063371588       -0.9121118619       -1.7494227114
 C          1.7259262114        0.1835208935       -1.3995301555
 O          0.6397467756        0.2364819674       -2.0070557168
 O          3.9940479733        1.6948625608        0.9868283485
 C          1.4202474114        2.2797433266       -0.0056852309
 C          0.3701731890        1.7981346280        0.9667519848
 C          0.6972411873        1.7036317747        2.3172831696
 C         -0.2207334163        1.2294416159        3.2346776996
 C         -1.4809188195        0.8358050433        2.8217485542
 C         -1.8174340839        0.9230896836        1.4755114484
 C         -0.8956356417        1.4054632478        0.5558581800
 H         -1.1666281329        1.4366797675       -0.4866061500
 N         -3.1061941941        0.5574124200        1.0450627220
 S         -3.2604193755       -0.2960445840       -0.4077647201
 O         -2.3407240655       -1.4113873002       -0.4246310002
 O         -3.1982642608        0.6345940963       -1.5046843515
 C         -4.9355618243       -0.8888093199       -0.2347812667
 C         -5.1610706085       -2.1941739925        0.1584351235
 C         -6.4669575000       -2.6328213527        0.3134420962
 C         -7.5199025820       -1.7620239420        0.0774067738
 C         -7.2783389079       -0.4543034466       -0.3170782813
 C         -5.9752644450       -0.0104745280       -0.4759041970
 H         -5.7384958733        0.9924405919       -0.7903447454
 H         -8.0993661804        0.2191922057       -0.5026330836
 H         -8.5350290629       -2.1056560722        0.1984530418
 H         -6.6569432859       -3.6500045786        0.6160720597
 H         -4.3106494965       -2.8365107963        0.3226439434
 H         -3.6317820895        0.0952804646        1.7761832637
 H         -2.2003382515        0.4628576437        3.5352110758
 H          0.0470420458        1.1612638297        4.2782921586
 H          1.6893649012        1.9935814011        2.6334944024
 H          2.1273946362        2.9079443426        0.5542116927
 C          0.8573196133        3.0965099302       -1.1480600207
 C          0.4002001729        4.4978438958       -0.8776274739
 C          1.6469104036        4.2565509665       -1.6731891572
 H          1.6294268732        4.4509347785       -2.7350880445
 H          2.5985388534        4.4653021051       -1.2064080793
 H         -0.4775849945        4.8592671415       -1.3909315808
 H          0.5067604431        4.8701372992        0.1301593506
 H          0.2985065991        2.5130384279       -1.8688026121
