  62
        -98.93336757
 C         -2.4341018658       -1.5688584794        0.2303825372
 C         -2.7334758228       -0.6694536177       -0.8212955451
 C         -3.6804628621        0.4097632675       -0.4955989056
 C         -4.1984380555        0.5022321462        0.7411732548
 C         -5.2024787739        1.5138843760        1.2263928743
 C         -4.7253827933        2.9786596385        1.2671930674
 C         -5.0673696113        3.7907384800        0.0118188034
 H         -5.9302035971        3.3359638371       -0.4763049904
 H         -5.3716532273        4.7942872418        0.3157770904
 C         -3.9341976542        3.9583947568       -1.0051722588
 H         -4.3719687704        4.3256631701       -1.9359361610
 H         -3.2401845732        4.7214281785       -0.6448454054
 C         -3.1143448566        2.7034093179       -1.3067530326
 H         -2.4287326343        2.5046412446       -0.4781437077
 H         -2.4878853174        2.9075281783       -2.1779452438
 C         -3.9512000739        1.4338137107       -1.5595238733
 H         -5.0122233684        1.6745214551       -1.5998568489
 H         -3.6624588333        0.9820275023       -2.5106692714
 H         -5.2183895627        3.4477133269        2.1201789157
 H         -3.6528118570        3.0069684404        1.4599264136
 H         -6.1000564868        1.4425582161        0.6079815544
 H         -5.4670041226        1.1975423972        2.2373829875
 O         -3.8809823423       -0.3800563236        1.7276028062
 C         -2.9912040316       -1.4151808338        1.5037191175
 O         -2.7852809976       -2.1346156876        2.5015056086
 H         -0.1572047642       -0.7561596852       -1.1830021294
 C          0.4612316392       -1.2285871934       -0.4337601127
 C         -0.0562807422       -2.2851284302        0.3039711275
 C          0.7485154083       -2.8795180563        1.2679925943
 C          2.0389999532       -2.4267389141        1.4829185750
 C          2.5518082886       -1.3767805494        0.7423632226
 C          1.7526170398       -0.7716347817       -0.2190349848
 N          2.2630468274        0.2963791524       -0.9811327069
 S          2.8986697175        1.6018829489       -0.1357460867
 O          2.2740650272        1.7477911526        1.1598451724
 O          2.7886143750        2.7311345841       -1.0332339869
 C          4.6177125175        1.1783394746        0.0542469399
 C          5.3370979741        0.8594622717       -1.0810541773
 C          6.6772708056        0.5314143938       -0.9533121520
 C          7.2727996798        0.5310113585        0.2994567930
 C          6.5378155439        0.8573508440        1.4288656896
 C          5.1960980869        1.1852379127        1.3082821093
 H          4.5828533881        1.4380290254        2.1586170356
 H          7.0022500627        0.8565250739        2.4018941057
 H          8.3158596060        0.2742784662        0.3962649731
 H          7.2519159067        0.2766501061       -1.8291718754
 H          4.8365845826        0.8735296603       -2.0348036379
 H          1.6168258126        0.6181763632       -1.6885756014
 H          3.5545858139       -1.0181163883        0.9080746919
 H          2.6525463862       -2.8956784302        2.2368923927
 H          0.3490982197       -3.6877741600        1.8630195149
 C         -1.4753828238       -2.7409250700        0.0805838415
 H         -1.7355419894       -3.4271308237        0.9015009800
 C         -1.6694782228       -3.5019846332       -1.2249219630
 C         -0.6458555012       -3.5653553631       -2.3149527649
 C         -0.9046264693       -4.7702692754       -1.4648888785
 H         -1.4210280259       -5.6135361936       -1.8976227351
 H         -0.1521099605       -5.0366530016       -0.7378689717
 H          0.2841133897       -3.0366503218       -2.1783190972
 H         -1.0035077944       -3.5583174822       -3.3333776069
 H         -2.7065289722       -3.4932276128       -1.5444758719
 O         -2.2499117388       -0.7414703154       -1.9814255856
