  62
        -98.94019439
 C         -2.2398429698       -0.8457324723        0.4180773715
 C         -1.0722159904       -1.1254767301        1.1661669208
 C         -0.3370375978       -2.3441299527        0.7955187001
 C         -0.7703538635       -3.0920583722       -0.2334861616
 C         -0.0268574912       -4.2468996787       -0.8404346536
 C          1.1071235596       -3.7017422175       -1.7343882503
 C          2.5161425253       -4.0481514957       -1.2523529545
 H          2.7201688881       -5.0985715194       -1.4727453048
 H          3.2129683386       -3.4440851934       -1.8379466905
 C          2.7872769962       -3.8164807854        0.2374270626
 H          2.3915508818       -4.6531585809        0.8157781021
 H          3.8713188958       -3.8300338797        0.3689165781
 C          2.2372101680       -2.5094457504        0.8228135431
 H          2.1177804140       -1.7574774648        0.0411604309
 H          2.9702103172       -2.1179718578        1.5319935582
 C          0.9042112437       -2.6653729988        1.5812458958
 H          0.8275079754       -3.6776500676        1.9871813044
 H          0.8978227421       -1.9691069624        2.4245102907
 H          0.9880843893       -4.0862031322       -2.7490910798
 H          1.0041883037       -2.6149687732       -1.7978160809
 H          0.3745178229       -4.8863020491       -0.0573209776
 H         -0.7375329371       -4.8220449067       -1.4344653042
 O         -1.9106173418       -2.8117178372       -0.9153518992
 C         -2.6545392009       -1.6837079925       -0.6210645078
 O         -3.6642741966       -1.5369383113       -1.3410747131
 H         -0.4757501139        1.1724049449        0.3047049528
 C         -1.1141826365        1.7060679944       -0.3768819009
 C         -2.4830444942        1.4811574953       -0.3555829640
 C         -3.2907226972        2.2010688118       -1.2265941017
 C         -2.7325898134        3.1038701862       -2.1149075695
 C         -1.3614965537        3.2725224603       -2.1788125596
 C         -0.5441717329        2.5573275427       -1.3092797123
 N          0.8523528192        2.6783173781       -1.3656796504
 S          1.8554094069        1.3264052318       -1.2759149141
 O          2.8040998115        1.4971176083       -2.3597561143
 O          1.0994331793        0.0984835091       -1.2872447577
 C          2.7246410251        1.5681179804        0.2609114600
 C          2.2345567581        1.0575397702        1.4451634160
 C          2.9368332190        1.2968596503        2.6171531614
 C          4.1062123466        2.0395302569        2.5896819897
 C          4.5856030072        2.5469985506        1.3912990901
 C          3.8902191858        2.3108511506        0.2174482837
 H          4.2330002479        2.6743855123       -0.7372056959
 H          5.4962468571        3.1236655842        1.3687961465
 H          4.6458525350        2.2216894661        3.5057378580
 H          2.5564054254        0.8991716415        3.5446280697
 H          1.3231006758        0.4808183725        1.4580059045
 H          1.1793209625        3.2983468229       -2.0928417676
 H         -0.9231757276        3.9442981907       -2.9016898589
 H         -3.3694117959        3.6597135222       -2.7864714020
 H         -4.3575155763        2.0330297847       -1.2230533292
 C         -3.0584800543        0.4289024836        0.5659945852
 H         -4.0665873257        0.1855991539        0.2018671188
 C         -3.1751709650        0.9519732990        1.9828521397
 C         -4.3487906266        1.8097022681        2.3455942872
 C         -4.2472101246        0.4129073669        2.8792323322
 H         -4.0188748860        0.2707220744        3.9245388774
 H         -4.9076154166       -0.3387071544        2.4711295483
 H         -4.1920449075        2.6325750156        3.0257241509
 H         -5.0842221934        2.0057525181        1.5801186688
 H         -2.2209709845        1.1855528341        2.4348782477
 O         -0.6270157647       -0.3972743621        2.0950429904
