  62
        -98.93890822
 C         -1.0609389604       -1.4286630663        0.0282080080
 C         -1.7086534944       -0.6978088246        1.0520817658
 C         -2.5959367298        0.3866307887        0.6124921298
 C         -2.7089636919        0.6587815554       -0.6997470949
 C         -3.5547723183        1.7357182748       -1.3273500667
 C         -5.0788227724        1.5914927681       -1.1500490040
 C         -5.6529476511        2.3606404664        0.0463487750
 H         -4.9781803938        3.1805724752        0.2952966983
 H         -6.6005262724        2.8151101672       -0.2499589356
 C         -5.9313322803        1.5292133713        1.3022654079
 H         -6.0908228743        2.2206892394        2.1325879392
 H         -6.8579885938        0.9681835354        1.1609340477
 C         -4.8451741493        0.5268893069        1.6938532412
 H         -4.8883236679       -0.3399171730        1.0301022525
 H         -5.0683776797        0.1573271302        2.6967933846
 C         -3.4099776344        1.0877554320        1.6607916819
 H         -2.9168309719        0.9007447102        2.6169110515
 H         -3.4219404875        2.1622926306        1.4849893460
 H         -5.3396485880        0.5355947965       -1.0847823892
 H         -5.5409857220        1.9822806525       -2.0579370580
 H         -3.2387576081        2.7073555922       -0.9415581719
 H         -3.3210298303        1.7053098499       -2.3932553408
 O         -2.0068453888       -0.0183995537       -1.6470354871
 C         -1.1659511184       -1.0694931868       -1.3162462289
 O         -0.5864118530       -1.5833718225       -2.2893108907
 O         -1.5498896250       -0.9382034813        2.2803848091
 C         -0.1687293313       -2.5949375722        0.4221476643
 C          1.2668923110       -2.1926587329        0.1974003981
 C          2.0927341657       -2.7573759211       -0.7642149330
 C          3.3822057628       -2.2842137741       -0.9441908065
 C          3.8747465549       -1.2488136204       -0.1709393911
 C          3.0561195771       -0.6825380858        0.7980176147
 C          1.7663690782       -1.1537204133        0.9749790279
 H          1.1253038231       -0.7058352545        1.7239157675
 N          3.5424203045        0.3920694759        1.5792656740
 S          3.8392244050        1.7962265417        0.7135382437
 O          5.0125284601        1.6036344733       -0.0990180250
 O          3.9083166760        2.8547019301        1.6950721848
 C          2.4023831290        2.0013278447       -0.3230486698
 C          2.4078319600        1.4807070089       -1.6012565049
 C          1.2667982756        1.6011688343       -2.3774506214
 C          0.1465755922        2.2354895985       -1.8644867235
 C          0.1525567369        2.7412498110       -0.5738320622
 C          1.2888460969        2.6199258681        0.2086084741
 H          1.3346042693        3.0095399433        1.2132655292
 H         -0.7237885184        3.2254051354       -0.1734280955
 H         -0.7375432091        2.3284066451       -2.4746361673
 H          1.2485530597        1.1916117606       -3.3745034326
 H          3.3004006338        1.0008048429       -1.9677278081
 H          2.9359856496        0.6094852583        2.3585116728
 H          4.8699714918       -0.8585973601       -0.3101164942
 H          4.0118965366       -2.7280056699       -1.7002571287
 H          1.7232416378       -3.5575537527       -1.3834888814
 H         -0.3165975986       -2.7197270565        1.5044353665
 C         -0.5722770426       -3.8748658800       -0.2754545084
 C         -0.1399433247       -5.1926829350        0.2922410381
 C         -1.5764436555       -4.7749914370        0.3774064945
 H         -2.2991138331       -5.2789547735       -0.2466883660
 H         -1.9660142647       -4.4753351697        1.3395220726
 H          0.1238077054       -5.9870474629       -0.3890812972
 H          0.4473430445       -5.1769706915        1.1979192524
 H         -0.6226194473       -3.7746773627       -1.3527589675
