  62
        -98.94946485
 C         -2.0485431232       -0.3842516093       -0.3161416631
 C         -1.3863602578       -1.3066102852       -1.1591775210
 C         -1.0131684122       -2.5853964816       -0.5441439966
 C         -1.2624645384       -2.7931018433        0.7617309303
 C         -0.9430063306       -4.0430313313        1.5363952096
 C          0.5083184780       -4.1080479431        2.0316596820
 C          1.5459069392       -4.4316230383        0.9561194206
 H          2.4743465879       -4.6826244291        1.4730483282
 H          1.2303079388       -5.3162465986        0.4010651436
 C          1.8236244782       -3.2783331981       -0.0178689886
 H          1.4777870689       -2.3413179154        0.4266929819
 H          2.9025969714       -3.1769656117       -0.1620495168
 C          1.1973425051       -3.4541834975       -1.4012795235
 H          1.6334698581       -4.3297987305       -1.8878961463
 H          1.4471652295       -2.5786687262       -2.0041887452
 C         -0.3287010894       -3.6123567016       -1.3976243672
 H         -0.5984537492       -4.6136919499       -1.0614894775
 H         -0.6873895939       -3.4795794751       -2.4217152205
 H          0.5576766943       -4.8822609570        2.8012684200
 H          0.7603012604       -3.1529554542        2.5002375079
 H         -1.6048345197       -4.0460147039        2.4052391586
 H         -1.1623896991       -4.9217965150        0.9286628965
 O         -1.8756623666       -1.8698570632        1.5473605497
 C         -2.2734578730       -0.6447216817        1.0360115215
 O         -2.8217723628        0.1040906096        1.8682943191
 O         -1.1211177384       -1.0746218797       -2.3704818168
 C         -2.4629982418        0.9694342600       -0.8691590241
 C         -1.8017372988        2.0534378663       -0.0537137698
 C         -2.4651419511        3.1548228222        0.4683380575
 C         -1.7893657860        4.0519856110        1.2787348061
 C         -0.4578458777        3.8622339620        1.5980329957
 C          0.2211457139        2.7724343927        1.0610238079
 C         -0.4462716855        1.9081728496        0.2122159231
 H          0.0767046969        1.0616662625       -0.2006510192
 N          1.5718049890        2.5496313534        1.3532269354
 S          2.3013650190        1.0492287276        1.2379042163
 O          1.3874591072       -0.0407667152        1.4836594103
 O          3.4343895857        1.1446310054        2.1347992324
 C          2.9055560161        1.0322413069       -0.4376778183
 C          3.9784426575        1.8523628490       -0.7317516783
 C          4.4629909610        1.8881895087       -2.0285473732
 C          3.8676569656        1.1091032210       -3.0097727660
 C          2.7942903092        0.2893302104       -2.6997237740
 C          2.3079533360        0.2481600520       -1.4021866448
 H          1.4729274476       -0.3821879890       -1.1376487628
 H          2.3219343198       -0.3158101268       -3.4576555211
 H          4.2413153450        1.1382574358       -4.0210931602
 H          5.2997052726        2.5229734429       -2.2716819180
 H          4.4166993197        2.4330117281        0.0627588044
 H          1.9567522872        3.1133593143        2.0953269666
 H          0.0529715225        4.5427572903        2.2619935707
 H         -2.3162111675        4.9004342330        1.6888701312
 H         -3.5126287954        3.3011891861        0.2616586328
 H         -2.0662681131        1.0057458982       -1.8946762408
 C         -3.9714868100        1.0846042414       -0.9224167168
 C         -4.6270404224        1.9620970980       -1.9456230416
 C         -4.7051178012        0.4715298616       -2.0761515957
 H         -5.6489232898       -0.0169151792       -1.8855865446
 H         -4.1115900893       -0.0094654593       -2.8397750807
 H         -5.5220353930        2.4979315681       -1.6676937099
 H         -3.9855791056        2.4971620839       -2.6291621748
 H         -4.4272106985        1.0083814376        0.0587547957
