  62
        -98.94464363
 C          1.6887422476        1.4058285261        0.1950042503
 C          1.6372904360        0.3347657587       -0.7304710997
 C          2.9384951356       -0.1944893893       -1.1681069368
 C          4.0710933312        0.3576119962       -0.6970802677
 C          5.4574498175       -0.1206822467       -1.0153178721
 C          5.9351405460       -1.1555457973        0.0129303588
 C          4.9261873873       -2.2730287144        0.2791367840
 H          4.0405374067       -1.8503416263        0.7598177135
 H          5.3823298860       -2.9594077746        0.9959141855
 C          4.4974871150       -3.0524331380       -0.9719787880
 H          4.5075775174       -4.1195829026       -0.7401959695
 H          5.2169463084       -2.8885541329       -1.7751698945
 C          3.0916636717       -2.7213940197       -1.4772196740
 H          2.3753909885       -2.7979302814       -0.6542325850
 H          2.8119001919       -3.4736480573       -2.2200116434
 C          2.9249302408       -1.3453594625       -2.1342713353
 H          1.9406751044       -1.3259984266       -2.6114180472
 H          3.6850434373       -1.2117545251       -2.9067892510
 H          6.1320346554       -0.6411723639        0.9563573865
 H          6.8729903686       -1.5872720430       -0.3410787716
 H          6.1311128723        0.7375438272       -0.9934748612
 H          5.4673963549       -0.5533085994       -2.0136861153
 O          4.0798258747        1.3974544036        0.1752102959
 C          2.8967143123        1.9295076984        0.6591177020
 O          3.0490386626        2.8550902788        1.4818106848
 O          0.5690128334       -0.1546689067       -1.1803067027
 C          0.4117029556        2.0041609326        0.7638352044
 C         -0.2484354256        0.9658887021        1.6393098420
 C          0.4007302431        0.5621621089        2.8042207717
 C         -0.1555627604       -0.4002573917        3.6236451523
 C         -1.3607098743       -0.9951926375        3.2883511357
 C         -2.0122215328       -0.6058840218        2.1260888683
 C         -1.4627163573        0.3824165385        1.3195587374
 H         -1.9882686053        0.6851528381        0.4320301953
 N         -3.2438134994       -1.1755506014        1.7518696474
 S         -3.3406055813       -1.8899146141        0.2286486212
 O         -4.5096247818       -2.7421718898        0.3142261802
 O         -2.1053660886       -2.5524846035       -0.1176456784
 C         -3.6943823815       -0.5468829651       -0.8826443912
 C         -4.9147399407        0.0874150363       -0.7542772808
 C         -5.2148780710        1.1386939483       -1.6050940347
 C         -4.2955677345        1.5314221403       -2.5667085452
 C         -3.0770643274        0.8802688270       -2.6839622609
 C         -2.7672210010       -0.1713382183       -1.8347033558
 H         -1.8147401038       -0.6775663894       -1.8728901985
 H         -2.3585840878        1.1890799552       -3.4270826408
 H         -4.5275294955        2.3512648815       -3.2285105075
 H         -6.1601518797        1.6493881492       -1.5161280108
 H         -5.6009630465       -0.2557880879        0.0019013335
 H         -3.6263376943       -1.8062798581        2.4431907863
 H         -1.7908472820       -1.7573564008        3.9211654114
 H          0.3556627058       -0.6990157989        4.5267256584
 H          1.3496427351        1.0169393380        3.0556910029
 H          0.7305760077        2.8348711420        1.4090112786
 C         -0.4839228178        2.5455266021       -0.3295475161
 C         -1.5836124768        3.5029180919        0.0158262885
 C         -0.3738693089        3.9857037214       -0.7252584308
 H         -0.4745456461        4.2415434836       -1.7690979077
 H          0.3426386464        4.5958617307       -0.1945089487
 H         -2.5182684158        3.4248395352       -0.5187321133
 H         -1.6895421266        3.7872245586        1.0517486049
 H         -0.6680988842        1.8273916562       -1.1185506315
