  62
        -98.94414162
 C         -2.5028870667       -1.1630858320       -0.0660554593
 C         -3.2170285497       -0.4079905947        0.8940106482
 C         -4.0377672475        0.6871834955        0.3655959948
 C         -4.0792712840        0.9095825515       -0.9611253183
 C         -4.8915454986        1.9691379817       -1.6554876100
 C         -4.2154403570        3.3462785947       -1.7011857211
 C         -4.1698617574        4.0926975913       -0.3673136119
 H         -3.8683894024        5.1194406467       -0.5837074111
 H         -5.1716982464        4.1310101458        0.0613204295
 C         -3.1930368721        3.4978852133        0.6568514036
 H         -2.4930633294        2.8312428724        0.1468491837
 H         -2.6009315373        4.2989445026        1.1056559657
 C         -3.8613700442        2.7333519509        1.7998832503
 H         -4.4646511617        3.4208990522        2.3967248068
 H         -3.0779772267        2.3276949974        2.4460549400
 C         -4.7517789405        1.5691081821        1.3452283419
 H         -4.9974225136        0.9635182373        2.2210869848
 H         -5.6763752130        1.9500846173        0.9123819757
 H         -3.2001131364        3.2243809443       -2.0856084066
 H         -4.7703253526        3.9580129386       -2.4160181403
 H         -5.0382453422        1.6242228998       -2.6811610319
 H         -5.8663392740        2.0568101175       -1.1750653504
 O         -3.3777577769        0.1599588500       -1.8519605343
 C         -2.5552430977       -0.8757750218       -1.4303192834
 O         -1.9426403888       -1.4502623844       -2.3489253037
 H         -0.3025022183       -0.0162487765        0.7223542700
 C          0.3430592385       -0.7767124704        0.2983544866
 C         -0.1776206263       -2.0411287732        0.0492712562
 C          0.6677284448       -3.0096469507       -0.4754641861
 C          1.9890069816       -2.7086135733       -0.7591952130
 C          2.4964367985       -1.4443056451       -0.5254003986
 C          1.6637579521       -0.4705463714        0.0110392591
 N          2.1715308505        0.8210925552        0.2481688557
 S          3.5370099638        0.9447214539        1.2222894451
 O          3.6079669321       -0.1444930882        2.1688716760
 O          3.4850359108        2.2788348377        1.7795862259
 C          4.8961660819        0.8482428965        0.0769676237
 C          4.9561916407        1.7784704375       -0.9421792508
 C          6.0143635646        1.7245113142       -1.8351838708
 C          6.9903461322        0.7492160733       -1.6927327973
 C          6.9172606112       -0.1753359531       -0.6621108322
 C          5.8605759250       -0.1278180545        0.2339808095
 H          5.7588510165       -0.8281666918        1.0475310252
 H          7.6772485815       -0.9322207182       -0.5529185583
 H          7.8129479942        0.7100922064       -2.3891940729
 H          6.0745760213        2.4418474944       -2.6377835732
 H          4.1799115606        2.5219517933       -1.0146858535
 H          1.4685777337        1.4773920681        0.5567765509
 H          3.5221620004       -1.2040835493       -0.7527701554
 H          2.6319039358       -3.4705147231       -1.1726176087
 H          0.2914087568       -4.0011587845       -0.6657678074
 C         -1.6211406437       -2.3045890859        0.4039713414
 H         -1.7023114657       -2.3018941898        1.5020732409
 C         -2.1435738691       -3.6268288034       -0.1174487730
 C         -1.9379038384       -4.8854839132        0.6696959903
 C         -3.3015317974       -4.2709034208        0.5822781103
 H         -4.0551029769       -4.7636780306       -0.0134137516
 H         -3.6948400409       -3.7686682516        1.4543006424
 H         -1.7573794064       -5.8051606051        0.1339669544
 H         -1.4072110013       -4.8083624918        1.6067429629
 H         -2.1169603126       -3.6859677218       -1.1996181456
 O         -3.1679331794       -0.6361316609        2.1337812101
