  62
        -98.94913561
 C         -1.2947502932       -1.5298893152        0.5502148885
 C         -2.2382391660       -1.1822382050       -0.4469036352
 C         -3.2025875298       -0.1406274078       -0.0739420633
 C         -3.1511925622        0.4153410939        1.1498030825
 C         -4.0501392594        1.5051894062        1.6660248094
 C         -3.5921978314        2.9136107104        1.2616295765
 C         -3.8319634785        3.2794675007       -0.2038294237
 H         -4.8679914987        3.0642041495       -0.4691316684
 H         -3.6889961677        4.3585718529       -0.2898774316
 C         -2.8872751873        2.5817920221       -1.1928708144
 H         -2.0090805601        2.2085098947       -0.6590668317
 H         -2.5187288072        3.3120289746       -1.9179941986
 C         -3.5260201459        1.4414238102       -1.9870871831
 H         -2.7511487847        0.9846778599       -2.6084215395
 H         -4.2957184033        1.8458572278       -2.6490408193
 C         -4.1550880646        0.3375276948       -1.1274001932
 H         -5.0797603231        0.6937919259       -0.6740348947
 H         -4.3851981300       -0.5105555359       -1.7773014627
 H         -4.1342811958        3.6271099272        1.8870941359
 H         -2.5266698710        3.0138572490        1.4852003427
 H         -5.0714124680        1.3382068727        1.3226597049
 H         -4.0321350550        1.4361060196        2.7559010353
 O         -2.2478380797        0.0326252047        2.0903631036
 C         -1.2705752727       -0.9044316867        1.7957814184
 O         -0.4485704934       -1.0967228512        2.7168743983
 O         -2.2690230090       -1.7025929650       -1.5924459080
 C         -0.1714738609       -2.4957900810        0.2234134013
 C          0.6937195539       -1.9159752545       -0.8729181505
 C          1.3338100451       -2.6870231594       -1.8354186401
 C          2.1236726156       -2.0838784201       -2.7996786182
 C          2.3077146553       -0.7125677402       -2.8196814915
 C          1.6750867412        0.0663382170       -1.8576423737
 C          0.8821850623       -0.5420134167       -0.8996076125
 H          0.3774646624        0.0775287114       -0.1759958978
 N          1.8116719889        1.4618386903       -1.8320212271
 S          1.8262245925        2.2747242213       -0.3708467011
 O          0.5112927229        2.2949624547        0.2185783564
 O          2.3904989210        3.5677971313       -0.6950188383
 C          2.9781239015        1.3609786133        0.6395161480
 C          2.5441729026        0.5534814749        1.6702615882
 C          3.4809699393       -0.1750725899        2.3880292750
 C          4.8258566945       -0.0845822835        2.0675153655
 C          5.2476984618        0.7385823110        1.0337748066
 C          4.3170074600        1.4649623042        0.3108231234
 H          4.6045098045        2.1256608037       -0.4908876060
 H          6.2950391857        0.8130382222        0.7895429781
 H          5.5477986850       -0.6559916324        2.6292327311
 H          3.1418701649       -0.8109806490        3.1904498233
 H          1.4934467462        0.4922331791        1.9086308465
 H          2.4768677691        1.8445481563       -2.4869217978
 H          2.9217324687       -0.2476551718       -3.5754199433
 H          2.6079641253       -2.6930287024       -3.5476513685
 H          1.2064088721       -3.7572959119       -1.8360200377
 H          0.4450494386       -2.5648911938        1.1328192477
 C         -0.7112623420       -3.8723555255       -0.1047123286
 C          0.0744894793       -5.0982901531        0.2493073513
 C         -1.1650210315       -4.7552100140        1.0178222642
 H         -2.0488316452       -5.3584261118        0.8748595731
 H         -1.0565547483       -4.3726509402        2.0226368739
 H          0.0404031277       -5.9435554222       -0.4214623894
 H          1.0258767543       -4.9602020115        0.7405644746
 H         -1.2966198822       -3.8816875142       -1.0164777254
