  62
        -98.94208708
 C         -0.5998048129       -1.4468690982        0.0509351984
 C         -1.3916696762       -0.8485429313        1.0549168656
 C         -2.4324927631        0.0973611794        0.6081922021
 C         -2.5369231486        0.3698902067       -0.7061594978
 C         -3.5716193648        1.2120007334       -1.4038920284
 C         -4.9288141641        0.4977767647       -1.5153338242
 C         -5.3968480617       -0.1973493767       -0.2395231486
 H         -6.3163417215       -0.7396849300       -0.4753062229
 H         -4.6531201234       -0.9383398315        0.0593322543
 C         -5.6915360934        0.7293343656        0.9379612400
 H         -6.1063616679        0.1122637489        1.7391670768
 H         -6.4583311037        1.4496858286        0.6445127958
 C         -4.4937076437        1.4964702105        1.5031461329
 H         -4.7946063583        1.8999626696        2.4745362349
 H         -4.2467374545        2.3503129539        0.8780828838
 C         -3.2531661013        0.6437170054        1.7516639208
 H         -2.5510645151        1.2156291164        2.3714024979
 H         -3.5318702946       -0.2212829029        2.3645006824
 H         -4.8490892414       -0.2617719237       -2.2967716948
 H         -5.6770331103        1.2275014907       -1.8292909473
 H         -3.1951890701        1.3972231622       -2.4116806736
 H         -3.6838023436        2.1687055801       -0.9045604888
 O         -1.6942517277       -0.1719849943       -1.6309572331
 C         -0.7236807030       -1.0948496323       -1.2922791623
 O         -0.0520676705       -1.5173240006       -2.2522098684
 O         -1.2571096894       -1.1088304473        2.2830467238
 C          0.4180451925       -2.5013832493        0.4390562264
 C          1.8008288952       -2.1282554731       -0.0327988016
 C          2.6889193976       -3.0457864339       -0.5796139282
 C          3.9534363971       -2.6450442964       -0.9744527950
 C          4.3599918613       -1.3325443339       -0.8269891928
 C          3.4797076907       -0.4064106700       -0.2763792726
 C          2.2146947615       -0.8107015980        0.1167937186
 H          1.5367066039       -0.0926072754        0.5548310169
 N          3.8513911313        0.9351664705       -0.1492674239
 S          3.0723426551        2.0076305858        0.8505816819
 O          3.9339372149        3.1715804953        0.8517224429
 O          2.7903255084        1.4401565879        2.1488775759
 C          1.5648201546        2.4190772559        0.0001434802
 C          0.4050536021        2.5920400846        0.7278703777
 C         -0.7444672259        3.0007805509        0.0715877429
 C         -0.7149351978        3.2235455397       -1.2958732531
 C          0.4535639534        3.0297635157       -2.0154043146
 C          1.6082902260        2.6298464763       -1.3633110429
 H          2.5351118660        2.4772785340       -1.8909866961
 H          0.4684959491        3.1917915009       -3.0811857301
 H         -1.6077584938        3.5494817547       -1.8049947994
 H         -1.6536462793        3.1445218396        0.6327422753
 H          0.4215476659        2.3953599016        1.7889478839
 H          4.8163541673        1.1609103340       -0.3321243366
 H          5.3453282347       -1.0206122089       -1.1371185651
 H          4.6330708545       -3.3666299885       -1.4017843080
 H          2.3913231215       -4.0743815057       -0.6999558875
 H          0.4277007223       -2.5099097820        1.5401528133
 C         -0.0395875349       -3.8597693491       -0.0543486805
 C          0.2917756303       -5.1020232175        0.7158913269
 C         -1.1124031322       -4.5795279172        0.7047112334
 H         -1.8632013511       -5.1220687804        0.1500072653
 H         -1.4891497580       -4.1029135517        1.5981522557
 H          0.5034335165       -6.0080513721        0.1681997140
 H          0.8654320015       -4.9896991427        1.6235736172
 H         -0.0677169576       -3.9182637059       -1.1369845124
