  62
        -98.94490936
 C         -1.8663563636       -1.0777423875       -0.1919975849
 C         -3.0145481908       -1.1580458152        0.6417830413
 C         -4.2400738169       -0.5389793038        0.1287958004
 C         -4.2336127737        0.0418304156       -1.0843024867
 C         -5.4075346587        0.6933234694       -1.7630867911
 C         -5.6469418384        2.1484109786       -1.3374754070
 C         -6.2161962380        2.3292054637        0.0703041839
 H         -6.5387917669        3.3689454251        0.1540038657
 H         -7.1018929430        1.7037052002        0.1860030839
 C         -5.2202763523        2.0296978733        1.1995877356
 H         -4.2033466621        2.0322533903        0.7997934828
 H         -5.2695083744        2.8234849593        1.9484438600
 C         -5.4632658746        0.7065084883        1.9258117382
 H         -6.4236824628        0.7445637364        2.4446011639
 H         -4.6791715707        0.5801165147        2.6767079440
 C         -5.4497274086       -0.5269216133        1.0134942874
 H         -5.4100087299       -1.4189352859        1.6433680856
 H         -6.3593985810       -0.5615914012        0.4142785536
 H         -4.7062530352        2.6975453466       -1.4231660935
 H         -6.3514884497        2.5841790771       -2.0497110975
 H         -5.1950506957        0.6786579890       -2.8342962302
 H         -6.3082907559        0.1068785903       -1.5795270326
 O         -3.1222945092        0.0825754337       -1.8625988250
 C         -1.9131651023       -0.4499398684       -1.4365400595
 O         -0.9918333711       -0.2938467042       -2.2647234523
 O         -3.0140298105       -1.7331387848        1.7621617693
 C         -0.5958642488       -1.7138972385        0.3468456734
 C          0.3468124844       -0.6848527107        0.9233827600
 C          0.6977735049       -0.7093703518        2.2678257224
 C          1.5902382510        0.2157425879        2.7822651427
 C          2.1508637123        1.1821574614        1.9669116243
 C          1.7999167122        1.2180839069        0.6236084972
 C          0.9111875432        0.2867211845        0.1087762910
 H          0.6415606060        0.3229696594       -0.9362649485
 N          2.3815199757        2.1882281803       -0.2208433088
 S          4.0550813808        2.1193909285       -0.3175404788
 O          4.6221550944        2.7461054195        0.8501394466
 O          4.4015716936        2.7152036684       -1.5882831633
 C          4.4205587160        0.3737066061       -0.3109168737
 C          4.9284125106       -0.2187650121        0.8271042544
 C          5.1237352239       -1.5904875420        0.8364996501
 C          4.8046445739       -2.3415664811       -0.2837571359
 C          4.2969650249       -1.7307252920       -1.4201958037
 C          4.0978080780       -0.3602280982       -1.4349615858
 H          3.7059254589        0.1478888125       -2.3019655345
 H          4.0499106945       -2.3151405527       -2.2922272684
 H          4.9528381672       -3.4099670068       -0.2721249678
 H          5.5184155093       -2.0691690796        1.7180127178
 H          5.1622994121        0.4024395474        1.6758670505
 H          1.9840087225        2.1799599148       -1.1499638492
 H          2.8541098967        1.9067609409        2.3446955930
 H          1.8527588862        0.1836026090        3.8285572652
 H          0.2578287509       -1.4552641315        2.9134126558
 H         -0.9307265476       -2.3578583915        1.1709145331
 C          0.1286598897       -2.5743641249       -0.6711065928
 C          1.0923496236       -3.6135088304       -0.1856955611
 C         -0.2176037482       -4.0271708485       -0.7849657317
 H         -0.2205988173       -4.4797372411       -1.7652140414
 H         -0.9829287500       -4.4115589408       -0.1264585721
 H          1.9941966027       -3.7813393034       -0.7529211267
 H          1.2172387117       -3.7184867854        0.8810716526
 H          0.3712092576       -2.0480301545       -1.5848024089
