  62
        -98.93405725
 C         -1.8225768582       -0.7956395740        0.0475017683
 C         -2.5780663299       -0.2369316768        1.1089032552
 C         -3.7007897077        0.6332638043        0.7291817266
 C         -3.9082755318        0.8994945941       -0.5729290169
 C         -5.0526283410        1.6986567001       -1.1283950371
 C         -6.3363237815        0.8441049594       -1.1344631963
 C         -7.4344848619        1.3483774574       -0.1978699609
 H         -7.9117741773        2.2211831907       -0.6483981561
 H         -8.1884824249        0.5616938990       -0.1251450456
 C         -6.9828128546        1.7382156440        1.2129631373
 H         -7.8841773407        1.8170922981        1.8244896776
 H         -6.5331642600        2.7321647825        1.1931269080
 C         -6.0072159683        0.7717371126        1.8968746554
 H         -6.2802125941        0.7041362417        2.9519330026
 H         -6.1035989669       -0.2308755418        1.4794633570
 C         -4.5309048729        1.2072493725        1.8440092149
 H         -4.4734361805        2.2991731637        1.8178144051
 H         -4.0353710564        0.8749753297        2.7612066404
 H         -6.0677637489       -0.1794854108       -0.8645059620
 H         -6.7419527814        0.8047071339       -2.1465101483
 H         -5.1948386469        2.5996691970       -0.5355959521
 H         -4.7833628946        1.9883376635       -2.1443962918
 O         -3.1211244107        0.4010216822       -1.5596627609
 C         -2.0593482874       -0.4539366307       -1.2849706670
 O         -1.4301109622       -0.8132107694       -2.2958257279
 H          0.5062038517        0.6456231512        0.5851477924
 C          1.0509715514       -0.0023631814       -0.0909744860
 C          0.5805579764       -1.2914095299       -0.3144187407
 C          1.2884756210       -2.1131292745       -1.1802637812
 C          2.4201838814       -1.6422720566       -1.8241198644
 C          2.8729819358       -0.3532641810       -1.6157679625
 C          2.1788255103        0.4735763968       -0.7406207859
 N          2.6337216885        1.7823832486       -0.5140798762
 S          4.2750321267        2.0407388663       -0.3337464931
 O          4.3807718556        3.2289871761        0.4844236510
 O          4.9042755228        2.1138549723       -1.6289949651
 C          4.8855290444        0.6167390512        0.5517789895
 C          5.8715259574       -0.1703595502       -0.0070055909
 C          6.3158552317       -1.2833889227        0.6887786478
 C          5.7655524906       -1.5907464474        1.9230890468
 C          4.7773040119       -0.7883253134        2.4728285238
 C          4.3317457012        0.3272997638        1.7831919277
 H          3.5680497327        0.9728472611        2.1867401794
 H          4.3499841049       -1.0284813241        3.4331531756
 H          6.1082134466       -2.4598603243        2.4619371590
 H          7.0856034987       -1.9076323903        0.2646398875
 H          6.2684331393        0.1032755476       -0.9710315585
 H          2.0955006705        2.3003636270        0.1637411544
 H          3.7376281441        0.0337604059       -2.1301030218
 H          2.9528444643       -2.2869319660       -2.5063418786
 H          0.9390303376       -3.1132765396       -1.3751456382
 C         -0.6704684121       -1.7148844319        0.4132691806
 H         -0.5116780726       -1.5307592745        1.4892175682
 C         -0.9821739852       -3.1971754099        0.2744166734
 C         -2.3855608267       -3.7051454513        0.4113024800
 C         -1.6938280893       -3.7638503276       -0.9159967997
 H         -1.3818821579       -4.7294136896       -1.2867009629
 H         -1.9995273331       -3.0780281086       -1.6901422516
 H         -3.1710266381       -2.9755805521        0.5464633204
 H         -2.5486494801       -4.6262295616        0.9504911388
 H         -0.2057001213       -3.8149299398        0.7148211791
 O         -2.3182407172       -0.4512571932        2.3238575259
