  62
        -98.94339309
 C         -2.5096355945       -1.1429001120        0.0000454489
 C         -3.4529612106       -0.5822975638        0.9031947618
 C         -4.3898265995        0.4015559624        0.3485097109
 C         -4.3273055287        0.6978784942       -0.9620212966
 C         -5.1816275703        1.7188967929       -1.6542759104
 C         -4.5081026743        3.0984429007       -1.6529124583
 C         -3.9921123085        3.5329449543       -0.2809276648
 H         -3.1779220944        2.8697457175        0.0207350565
 H         -3.5661030746        4.5319829953       -0.3959456926
 C         -5.0604506938        3.5567982215        0.8212345015
 H         -6.0547731499        3.5677815570        0.3733328304
 H         -4.9523796873        4.4808868931        1.3929219370
 C         -4.9675910005        2.4021886955        1.8206919587
 H         -5.6179029142        2.6336010202        2.6684188371
 H         -3.9460341785        2.3290591037        2.2023029210
 C         -5.3824917062        1.0244752935        1.2890244003
 H         -5.4526536359        0.3453293393        2.1436136742
 H         -6.3668522828        1.0912167020        0.8213337587
 H         -3.6621352556        3.0711641936       -2.3437085201
 H         -5.2255372251        3.8328397592       -2.0235046583
 H         -5.3327039719        1.3987551493       -2.6865842741
 H         -6.1476302177        1.7738442204       -1.1561766525
 O         -3.4316654248        0.1244069225       -1.8024122589
 C         -2.4936898762       -0.7926399116       -1.3498500554
 O         -1.7321378326       -1.1991478040       -2.2520283474
 O         -3.5095571761       -0.8984765824        2.1212432162
 C         -1.5332653413       -2.1501538100        0.5846814002
 C         -0.1842870870       -1.5270104951        0.8573161427
 C          0.3192952501       -1.4577939689        2.1510457784
 C          1.5622837597       -0.8999560614        2.3941049727
 C          2.3243917406       -0.3947729185        1.3560604914
 C          1.8295052660       -0.4569992207        0.0597780189
 C          0.5872953272       -1.0268544555       -0.1819341594
 H          0.2058047207       -1.0695780554       -1.1915423085
 N          2.5775147944        0.0810727273       -1.0008698606
 S          4.1977613676       -0.3295672841       -1.1361153734
 O          4.5265318329       -0.1274471094       -2.5302209258
 O          4.4599130276       -1.6448010779       -0.5987347816
 C          5.0327475590        0.9044873389       -0.1605492060
 C          4.7679657503        2.2337293341       -0.4263160464
 C          5.4181387195        3.2067203801        0.3157648639
 C          6.3198254814        2.8365371884        1.3026372077
 C          6.5776086406        1.4978543946        1.5547283433
 C          5.9294063355        0.5194461297        0.8168522072
 H          6.0931138700       -0.5335630441        0.9817635010
 H          7.2789259080        1.2121569413        2.3221407850
 H          6.8242041336        3.5962985922        1.8785432910
 H          5.2195433129        4.2487551320        0.1229663236
 H          4.0623670599        2.4792467969       -1.2025785511
 H          2.1108980036        0.0147587314       -1.8941157288
 H          3.2919835226        0.0430034517        1.5395425135
 H          1.9410910118       -0.8541945600        3.4036764812
 H         -0.2759591895       -1.8360945345        2.9692715158
 H         -1.9679540838       -2.4368027911        1.5517728203
 C         -1.3821677977       -3.4015027757       -0.2587590191
 C         -0.8900337466       -4.6591175535        0.3896591612
 C         -2.3204017373       -4.5492914913       -0.0443718349
 H         -2.6464394156       -5.1147758418       -0.9043807518
 H         -3.0776130021       -4.4394155732        0.7182569829
 H         -0.2284695604       -5.3017162613       -0.1709057004
 H         -0.6775174881       -4.6261235837        1.4474687906
 H         -1.0663196893       -3.2025140039       -1.2747121858
