  62
        -98.93883418
 C         -1.9050538186       -0.2895556105        0.0191517698
 C         -2.9437815785       -1.1334605210        0.4760436992
 C         -4.2508771286       -0.4973253713        0.7120521499
 C         -4.3775626487        0.8255149088        0.5087153011
 C         -5.6260098888        1.6537493286        0.6367295319
 C         -6.3341015589        1.7791552797       -0.7229992079
 C         -7.3132813189        0.6511163198       -1.0461245388
 H         -8.1951173288        0.7488763592       -0.4094272786
 H         -7.6388094990        0.7903289907       -2.0796438386
 C         -6.7546854887       -0.7662014302       -0.8936181100
 H         -7.3800802687       -1.4371361198       -1.4858396905
 H         -5.7472199887       -0.8116522698       -1.3113158902
 C         -6.7407588985       -1.2565868315        0.5618931495
 H         -7.3441780585       -0.5825032720        1.1696072402
 H         -7.2204399084       -2.2359561316        0.6171973088
 C         -5.3472205184       -1.4100789318        1.1900049793
 H         -5.4334449783       -1.3123012928        2.2772810194
 H         -4.9701647483       -2.4191978516        0.9967169884
 H         -5.5641898590        1.8326113604       -1.4971896780
 H         -6.8848889291        2.7217140096       -0.7459951071
 H         -6.2896518187        1.2385278079        1.3893112516
 H         -5.3082631789        2.6484052984        0.9563326727
 O         -3.3448426488        1.6064221893        0.0875479816
 C         -2.0907862988        1.0790726597       -0.1730025790
 O         -1.2533436489        1.9159353801       -0.5593367884
 H          1.6556413712        0.7064783706       -0.8438242297
 C          1.5234512913        0.5181009197        0.2076506602
 C          0.4756106614       -0.2648642708        0.6631238996
 C          0.3297035716       -0.4540805919        2.0362611595
 C          1.2031808216        0.1356498174        2.9277531799
 C          2.2480736515        0.9195977779        2.4688267504
 C          2.4039149913        1.1145036391        1.1022977206
 N          3.4422386512        1.9249081096        0.6164912412
 S          4.3739926811        1.4505460908       -0.6858766993
 O          5.5050143810        2.3517119409       -0.6658584587
 O          3.5902480610        1.4352471117       -1.8936889293
 C          4.9100876713       -0.1986489995       -0.2689197508
 C          6.0326955914       -0.3431441001        0.5233619390
 C          6.4238484516       -1.6152341203        0.9075032879
 C          5.6835248317       -2.7158340301        0.5027526570
 C          4.5589738516       -2.5536857495       -0.2913705927
 C          4.1647021814       -1.2838328292       -0.6831229516
 H          3.2988430713       -1.1208950788       -1.3029025114
 H          3.9851644316       -3.4101564793       -0.6076095034
 H          5.9854814918       -3.7061730203        0.8050410261
 H          7.3008122917       -1.7448857608        1.5210281977
 H          6.5844366213        0.5384797898        0.8068317397
 H          4.0204610812        2.3353029990        1.3350302514
 H          2.9282705915        1.3888150674        3.1633949408
 H          1.0737090517       -0.0158965835        3.9887171598
 H         -0.4904273583       -1.0625801623        2.3921793190
 C         -0.5395179986       -0.8965841501       -0.2556544308
 H         -0.6361256685       -1.9576386003        0.0162749783
 C         -0.1948280388       -0.8023335988       -1.7259753608
 C          0.7488753313       -1.7929297182       -2.3372197617
 C         -0.7134338888       -1.8526579981       -2.6602444516
 H         -1.0397321589       -1.5512032373       -3.6443638313
 H         -1.2994209986       -2.6526233685       -2.2316367122
 H          1.4304083911       -1.4502551775       -3.1019854315
 H          1.1502435814       -2.5604568287       -1.6925755924
 H         -0.1718789989        0.2176832115       -2.0932461999
 O         -2.7875689984       -2.3686005611        0.6750518582
