  62
        -98.94544826
 C          1.6684190217        0.9234843216        0.1221379427
 C          2.6751103815        0.5988538622        1.0614020813
 C          3.3559213381       -0.6872793019        0.8570279454
 C          2.9705125585       -1.4814483490       -0.1586976458
 C          3.6105220930       -2.7921252034       -0.5118522617
 C          4.7423671267       -2.5999220126       -1.5311235168
 C          5.7329437270       -1.4981527777       -1.1545930198
 H          6.5025410311       -1.4745442775       -1.9290821213
 H          5.2210357384       -0.5334708923       -1.1808559643
 C          6.3954232079       -1.6816059555        0.2179843090
 H          6.2878565976       -2.7160367707        0.5466616759
 H          7.4647358314       -1.4825619552        0.1205477599
 C          5.8664323942       -0.7467629210        1.3073080379
 H          5.8868309763        0.2847981456        0.9465624150
 H          6.5422876116       -0.8064407268        2.1646116697
 C          4.4524420949       -1.0508353600        1.8181838652
 H          4.3830782738       -2.1025253905        2.1046287803
 H          4.2832827428       -0.4407736685        2.7107043908
 H          5.2731721580       -3.5475072652       -1.6393528067
 H          4.2993318017       -2.3462142752       -2.4968484016
 H          3.9973451556       -3.2579982922        0.3925677727
 H          2.8489073979       -3.4421400705       -0.9462164131
 O          1.9710519069       -1.1544944580       -1.0166954286
 C          1.3055662291        0.0617350850       -0.9135907184
 O          0.4288469436        0.2398707076       -1.7765064179
 H         -0.2937210508        0.2921675453        1.5976592736
 C         -1.0097903885        0.9633041293        1.1389510621
 C         -0.5492470545        2.0403074653        0.3926210767
 C         -1.4854846169        2.8897972563       -0.1840076038
 C         -2.8408398815        2.6607796210       -0.0184330081
 C         -3.2940495057        1.5791571577        0.7134523112
 C         -2.3661287752        0.7203238775        1.2890470464
 N         -2.8135340210       -0.4037294385        2.0039589163
 S         -4.0466899766       -1.3099844392        1.3218852474
 O         -5.3187901203       -0.7555376238        1.7158912806
 O         -3.7990090624       -2.6689358199        1.7532407614
 C         -3.8568066254       -1.1632008984       -0.4467007447
 C         -2.6253800710       -1.4340500381       -1.0086158152
 C         -2.4650063115       -1.2921039326       -2.3768184798
 C         -3.5392286526       -0.8952072817       -3.1582279149
 C         -4.7741130957       -0.6406471572       -2.5819702982
 C         -4.9358118702       -0.7692123930       -1.2120540531
 H         -5.8727630699       -0.5653968125       -0.7194179016
 H         -5.6072185513       -0.3337690034       -3.1935840544
 H         -3.4082076503       -0.7808111565       -4.2226691418
 H         -1.4943131722       -1.4631205925       -2.8135395758
 H         -1.7995234345       -1.7369801493       -0.3840570670
 H         -2.0694713329       -0.9998442262        2.3354624552
 H         -4.3456055480        1.3844051173        0.8498703413
 H         -3.5550460414        3.3309176493       -0.4713164418
 H         -1.1531332976        3.7326026251       -0.7672012326
 C          0.9394233631        2.2472068293        0.2530445303
 H          1.3103452789        2.6937316480        1.1884408688
 C          1.3087573408        3.1593921040       -0.8997370950
 C          1.3996597012        4.6419927319       -0.7004041264
 C          2.6472789846        3.8329349513       -0.8839868569
 H          3.1921786838        3.9224979857       -1.8118201373
 H          3.2775993720        3.6602978351       -0.0234995426
 H          1.1900571786        5.0292760139        0.2852821913
 H          1.0896189933        5.2907834250       -1.5056980131
 H          0.9456506115        2.7899567415       -1.8522502542
 O          2.9854034773        1.3460514036        2.0292126546
