  62
        -98.95212202
 C         -2.3621562921       -0.3164739939        0.0406114130
 C         -1.5148666671        0.2435073721       -0.9433403121
 C         -1.5005375390        1.7094846362       -1.0241050276
 C         -2.2700900916        2.4211906243       -0.1808650016
 C         -2.3672607928        3.9191755531       -0.1622933576
 C         -1.3697816389        4.5491191053        0.8178714915
 C          0.0640035718        4.0431393821        0.6585520972
 H          0.6855632286        4.6043721819        1.3607266267
 H          0.1174190138        2.9948974414        0.9621307653
 C          0.6383784009        4.1862700468       -0.7577002288
 H          1.6593831472        4.5660994630       -0.6798696953
 H          0.0602613517        4.9185722579       -1.3234149263
 C          0.7111865069        2.8722389368       -1.5379210463
 H          1.3719743678        3.0192351886       -2.3967386652
 H          1.1615603217        2.1073086476       -0.9002117944
 C         -0.6243159118        2.3370977787       -2.0713180163
 H         -1.1577374205        3.1342950205       -2.5942104745
 H         -0.4028490660        1.5425563776       -2.7899139950
 H         -1.6969667445        4.3294136766        1.8369071388
 H         -1.3922183475        5.6323388910        0.6800553449
 H         -2.1899571652        4.2976033557       -1.1674408825
 H         -3.3798230851        4.1894019957        0.1439404711
 O         -3.0532157276        1.8491134461        0.7701850829
 C         -3.1043555256        0.4726389842        0.9168413938
 O         -3.8428382491        0.0786552834        1.8441547257
 H         -0.4491836611       -0.8755224733        1.6577290633
 C         -0.1594179786       -1.7766352691        1.1366928985
 C         -1.0760534181       -2.4226940259        0.3173087836
 C         -0.6805716729       -3.5883902572       -0.3274378881
 C          0.6083903163       -4.0705926272       -0.1779621374
 C          1.5335097741       -3.3924066490        0.5943961511
 C          1.1433600003       -2.2320833921        1.2527865368
 N          2.0507441352       -1.4891259594        2.0370816656
 S          2.3852791012        0.0758815403        1.5364086710
 O          3.3585004422        0.5725823292        2.4858848920
 O          1.1631002753        0.8272125734        1.4244814579
 C          3.1698165221       -0.1235546124       -0.0540151934
 C          4.5467729489       -0.0251311857       -0.1219716788
 C          5.1776500077       -0.2349460902       -1.3369819119
 C          4.4240427038       -0.5483388945       -2.4583979399
 C          3.0444555893       -0.6481604595       -2.3716446299
 C          2.4041011149       -0.4364211126       -1.1595579187
 H          1.3296726562       -0.5044580169       -1.0808674317
 H          2.4500598854       -0.8906075455       -3.2378894009
 H          4.9133335131       -0.7148698759       -3.4051698334
 H          6.2507457718       -0.1558224552       -1.4049017304
 H          5.0887434718        0.2231113587        0.7763700002
 H          2.9222618573       -1.9703617910        2.2140387734
 H          2.5472353499       -3.7520829232        0.6881891407
 H          0.9017225826       -4.9762156431       -0.6865062443
 H         -1.3805345204       -4.1164154832       -0.9541380606
 C         -2.4554367893       -1.8254292936        0.1827191627
 H         -3.0070896302       -2.0118948192        1.1162368781
 C         -3.2462213046       -2.4016370986       -0.9752524398
 C         -4.0796717366       -3.6330253580       -0.7886261519
 C         -4.7405597955       -2.2980607328       -0.9505094774
 H         -5.2586640081       -2.0844019930       -1.8733192901
 H         -5.1880444346       -1.8357717120       -0.0823911782
 H         -4.0910534717       -4.0861960862        0.1911284495
 H         -4.1493412798       -4.3377606583       -1.6035281448
 H         -2.7510990169       -2.2554903976       -1.9286054404
 O         -0.8162481854       -0.4509771493       -1.7286785324
