  62
        -98.94431483
 C         -1.1441982574       -1.2426117024        0.8381453417
 C         -2.3133991774       -1.3746749017        0.0503191903
 C         -3.2731962727       -0.2627155391        0.1389569629
 C         -2.9793583610        0.8110626030        0.8937678927
 C         -3.8464076496        2.0301075794        1.0206197102
 C         -3.5122208743        3.0844910059       -0.0443052086
 C         -3.3968911118        2.5242627741       -1.4612822117
 H         -3.1636027488        3.3606154804       -2.1240217368
 H         -2.5543071943        1.8301753870       -1.5035230238
 C         -4.6606696274        1.8145489626       -1.9658465691
 H         -5.5170004683        2.1035565591       -1.3551681333
 H         -4.8654828948        2.1432572887       -2.9869682903
 C         -4.5572783171        0.2892773501       -1.9995953438
 H         -3.6523621006       -0.0075214610       -2.5356156009
 H         -5.4118385405       -0.0977942636       -2.5610824417
 C         -4.5559567060       -0.4040807894       -0.6318696093
 H         -5.4016528699       -0.0493563161       -0.0391130576
 H         -4.6835878207       -1.4766158587       -0.8050723115
 H         -4.2848561179        3.8552035109       -0.0188038250
 H         -2.5600479507        3.5489113476        0.2157383097
 H         -4.8896636917        1.7316513115        0.9323463386
 H         -3.6865600803        2.4618528648        2.0099179424
 O         -1.8307103288        0.9175007686        1.6103581087
 C         -0.8962967132       -0.1032482641        1.6097934744
 O          0.0971901717        0.1118613248        2.3319629262
 O         -2.5682876632       -2.3629507234       -0.6858567784
 C         -0.0485632630       -2.2998037361        0.8442669585
 C          0.7567709664       -2.1124771787       -0.4182793874
 C          0.4249840688       -2.7250922647       -1.6210975881
 C          1.1508078139       -2.4471195501       -2.7658234654
 C          2.2094016302       -1.5572163687       -2.7370099168
 C          2.5504408422       -0.9416886703       -1.5364412061
 C          1.8280043602       -1.2281099053       -0.3879736707
 H          2.0953277538       -0.7509290083        0.5434517681
 N          3.6191100641       -0.0436402880       -1.4828765287
 S          3.9724705724        0.9214390880       -0.1824653738
 O          4.9659953723        1.8413751639       -0.6978905578
 O          4.3944388019        0.1170207044        0.9380896825
 C          2.5044473157        1.8427783018        0.2394469063
 C          2.3516990016        2.2326414430        1.5538197239
 C          1.2606508618        3.0093387033        1.9040791705
 C          0.3428157111        3.3804409012        0.9361121564
 C          0.5044995237        2.9757737770       -0.3793108856
 C          1.5978284859        2.2032208316       -0.7365299741
 H          1.7403126291        1.8753468936       -1.7537827584
 H         -0.2193148990        3.2563752947       -1.1286549146
 H         -0.5074924903        3.9829459242        1.2154384403
 H          1.1244319200        3.3099056607        2.9302951413
 H          3.0782862854        1.9063614770        2.2806615104
 H          4.0067867246        0.2699005477       -2.3580134355
 H          2.7704410527       -1.3383796191       -3.6323977523
 H          0.8842948206       -2.9255717126       -3.6961073512
 H         -0.4187825006       -3.3940604711       -1.6616329835
 H          0.6030634092       -2.0518368063        1.6932740390
 C         -0.5686596671       -3.7085056509        1.0331225238
 C          0.3989310345       -4.7903249948        1.4045021114
 C         -0.5969144915       -4.2973952839        2.4100064136
 H         -1.4217548943       -4.9405034338        2.6781140807
 H         -0.2385644941       -3.6850883401        3.2251332313
 H          0.2607799336       -5.7740967541        0.9829709148
 H          1.4334741229       -4.5094973266        1.5364738046
 H         -1.3853725103       -3.9650061430        0.3720414164
