  62
        -98.94320208
 C         -1.7506251119       -1.4208151425       -0.0525496882
 C         -3.0545850046       -1.1896369397        0.4630097773
 C         -3.8116658618       -0.0834908282       -0.1360564842
 C         -3.2405019742        0.6527602385       -1.1058632304
 C         -3.8631262038        1.8550378603       -1.7527938850
 C         -3.4834725767        3.1445289946       -1.0110078427
 C         -3.6801717991        3.0675350403        0.5030110688
 H         -2.9823327261        2.3368556783        0.9184257072
 H         -3.4094517852        4.0414518533        0.9161298929
 C         -5.1078406193        2.7082709729        0.9384999632
 H         -5.4032424003        3.3724672193        1.7534531604
 H         -5.8015367022        2.8799512044        0.1144798589
 C         -5.2750235663        1.2762265393        1.4503172039
 H         -4.5216994353        1.0696130210        2.2147273447
 H         -6.2551490647        1.1982735827        1.9285240046
 C         -5.1967628735        0.1733989271        0.3868734011
 H         -5.8814315711        0.4026135562       -0.4324310034
 H         -5.5211115244       -0.7611168734        0.8540781774
 H         -2.4317326361        3.3626232023       -1.2093157451
 H         -4.0810842843        3.9631338297       -1.4161419562
 H         -3.5042541036        1.9180982688       -2.7816418893
 H         -4.9447815843        1.7352121012       -1.7638538525
 O         -1.9943398013        0.4059040670       -1.5761047786
 C         -1.2153826777       -0.6302918874       -1.0716978767
 O         -0.1048901021       -0.7198644169       -1.6258082114
 O         -3.5613684540       -1.8783500253        1.3878034710
 C         -0.9319735343       -2.5134554160        0.6174143242
 C          0.3757891614       -1.9219879472        1.0746392293
 C          0.4373975881       -1.2249198984        2.2775872030
 C          1.6057178187       -0.5995916358        2.6725868963
 C          2.7248752094       -0.6262725935        1.8587049095
 C          2.6634041200       -1.3007883165        0.6462870353
 C          1.5069102868       -1.9738000650        0.2759921728
 H          1.4717769933       -2.4967195966       -0.6666436477
 N          3.7692459293       -1.2733528171       -0.2202230758
 S          4.5812972026        0.1792985393       -0.3889730670
 O          5.1111494425        0.1670504531       -1.7354907805
 O          5.5675492337        0.2940139771        0.6594688310
 C          3.3810307764        1.4918921266       -0.2045564172
 C          3.7072385813        2.5734897075        0.5901746419
 C          2.7960277074        3.6075109503        0.7291436771
 C          1.5738050428        3.5421149364        0.0776988299
 C          1.2630613872        2.4505818736       -0.7172638375
 C          2.1731617291        1.4161031832       -0.8681273090
 H          1.9199129761        0.5585847881       -1.4711047730
 H          0.3109362380        2.3804786830       -1.2203722165
 H          0.8597291423        4.3427517817        0.1911658275
 H          3.0384881268        4.4569485810        1.3472577384
 H          4.6628164890        2.5775523666        1.0893595740
 H          3.5789395200       -1.6833164038       -1.1233042669
 H          3.6396689941       -0.1300335494        2.1407595745
 H          1.6436268351       -0.0736819798        3.6142482928
 H         -0.4467638622       -1.1717445372        2.8974574511
 H         -1.5194283864       -2.7815798814        1.5097855269
 C         -0.7594351027       -3.7946879366       -0.1836059450
 C         -1.9217019309       -4.3794940514       -0.9282892092
 C         -0.7399494426       -3.8490276271       -1.6803472979
 H         -0.0745827106       -4.5581741520       -2.1518174177
 H         -0.8480567710       -2.9266698786       -2.2278641285
 H         -2.0772726892       -5.4471474692       -0.8931971503
 H         -2.8357079074       -3.8035960956       -0.9462340649
 H         -0.1122512344       -4.4991124428        0.3310073578
