  62
        -98.94346748
 C         -2.2862965201       -0.6202562199        0.0372757228
 C         -3.1720580238       -0.2156879473        1.0726366297
 C         -4.0809665714        0.8909215842        0.7605470952
 C         -4.0254394297        1.4747117851       -0.4498431560
 C         -4.8651744445        2.6325276975       -0.9165799195
 C         -6.2474923562        2.2280357433       -1.4470937968
 C         -7.2488812817        1.7829022393       -0.3805412036
 H         -7.3023429925        2.5384636938        0.4038538746
 H         -8.2290789381        1.7408314627       -0.8595790240
 C         -6.9444555003        0.4127261413        0.2411964695
 H         -7.8606487709       -0.1807394931        0.2809997885
 H         -6.2409936896       -0.1283422976       -0.3959609859
 C         -6.3808467434        0.4717911922        1.6610415259
 H         -6.1679852165       -0.5492112621        1.9877922198
 H         -7.1301541595        0.8918306867        2.3356155428
 C         -5.0899874403        1.2903421502        1.7944487982
 H         -4.6561540645        1.0899984045        2.7770369739
 H         -5.3100653729        2.3549990038        1.7191258252
 H         -6.1198283188        1.4305634509       -2.1828211490
 H         -6.6632138640        3.0948700174       -1.9660102835
 H         -4.9818721835        3.3504827590       -0.1042693435
 H         -4.3118004155        3.1110431806       -1.7275087313
 O         -3.1532084868        1.0729270814       -1.4096693283
 C         -2.2789782141        0.0144379412       -1.2045861939
 O         -1.5696668115       -0.2330242387       -2.2021675542
 O         -3.2013686008       -0.7612905546        2.2072316534
 C         -1.3629524740       -1.7843979649        0.3557953144
 C          0.0354156263       -1.3202238081        0.6892349890
 C          0.5801740127       -1.5511460560        1.9470027868
 C          1.8694942886       -1.1439693612        2.2420847397
 C          2.6391089887       -0.4953308834        1.2932069099
 C          2.1033461958       -0.2572966587        0.0341860903
 C          0.8133418007       -0.6746752263       -0.2613776769
 H          0.4005615270       -0.4826047214       -1.2407832807
 N          2.8644031959        0.4255760320       -0.9307109757
 S          4.4206906006       -0.1173397642       -1.2472451515
 O          4.7179070173        0.3349842384       -2.5887546352
 O          4.5473870042       -1.5360386175       -1.0049406288
 C          5.4310269232        0.7896706900       -0.0946450525
 C          5.3461059791        2.1682201175       -0.0999177870
 C          6.1313059382        2.8903577857        0.7843849205
 C          6.9859103104        2.2259461486        1.6517264306
 C          7.0629555243        0.8417448483        1.6416391475
 C          6.2789661728        0.1132672316        0.7603518995
 H          6.3007885725       -0.9641377720        0.7208664998
 H          7.7284601095        0.3272481311        2.3160354634
 H          7.5955724241        2.7908691970        2.3391064841
 H          6.0738986490        3.9669309957        0.7949459239
 H          4.6720828599        2.6455520844       -0.7916899209
 H          2.3608565455        0.5900290956       -1.7908107628
 H          3.6430763772       -0.1739190141        1.5175254069
 H          2.2793806895       -1.3308494741        3.2228253733
 H         -0.0189030337       -2.0449560666        2.6981244106
 H         -1.7853844173       -2.2401424431        1.2615184382
 C         -1.3274145328       -2.8375672606       -0.7353074821
 C         -0.9048797407       -4.2317267035       -0.3859020489
 C         -2.3368712200       -3.9441134360       -0.7221319453
 H         -2.7287331539       -4.2946383101       -1.6651774014
 H         -3.0599199736       -3.9510372536        0.0805234272
 H         -0.3077615214       -4.7815886164       -1.0971925840
 H         -0.6575569888       -4.4354170924        0.6448870440
 H         -1.0301985989       -2.4490805727       -1.7009236239
