  62
        -98.93107648
 C          2.4904581263       -1.2727687796        0.3228555423
 C          2.1562289851        0.0752089065        0.0516976095
 C          3.2414257769        0.9420908350       -0.4616311814
 C          4.4598698660        0.4123495025       -0.6712504670
 C          5.7139369543        1.0946284524       -1.1508682950
 C          6.3773514774        1.9543196851       -0.0640455055
 C          5.4173411311        2.8383831267        0.7267753279
 H          5.9914810874        3.3259126062        1.5189913019
 H          4.6672500115        2.2098536747        1.2099160228
 C          4.7207586558        3.9282399488       -0.0846749635
 H          5.4751054754        4.5616061860       -0.5565334691
 H          4.1607405040        4.5483390941        0.6198825633
 C          3.7477692353        3.4427223463       -1.1624263622
 H          4.2754393571        3.1160951014       -2.0545935816
 H          3.1381770178        4.3004906542       -1.4613978941
 C          2.7781017818        2.3591852336       -0.7013065207
 H          1.9658661121        2.2794764022       -1.4345944233
 H          2.2927194644        2.6840157097        0.2263777786
 H          7.1426018322        2.5735001498       -0.5352403166
 H          6.8732748527        1.2839663719        0.6422753977
 H          5.5028139941        1.6865289729       -2.0365092816
 H          6.4081960596        0.3020461665       -1.4391243659
 O          4.7280406264       -0.9019881877       -0.4230036486
 C          3.7703463260       -1.7688636466        0.0597784819
 O          4.1698233109       -2.9412163114        0.2095819904
 O          1.0124540110        0.5687037649        0.2335438638
 C          1.4734962008       -2.2852482406        0.8255389582
 C          0.2335075622       -2.2205008315       -0.0304826041
 C          0.2712013988       -2.7613743784       -1.3122523298
 C         -0.8303834751       -2.6830460091       -2.1430025321
 C         -1.9903528569       -2.0612171669       -1.7149190899
 C         -2.0330183640       -1.5077423525       -0.4428135513
 C         -0.9279998230       -1.5984504927        0.3952140336
 H         -0.9615880026       -1.1459347199        1.3739217829
 N         -3.2066876914       -0.8794750034        0.0145710463
 S         -4.0971953269        0.0500833091       -1.0770542887
 O         -4.8756965121       -0.8407447187       -1.9026061599
 O         -3.2405576650        0.9747694088       -1.7852692970
 C         -5.1740344639        0.9240526513        0.0419219105
 C         -4.7749736575        2.1507529821        0.5379640679
 C         -5.6027003553        2.8138912991        1.4302917847
 C         -6.8065624559        2.2405523383        1.8118763838
 C         -7.1930754534        1.0085862754        1.3055542726
 C         -6.3708049626        0.3407613353        0.4120209708
 H         -6.6320022685       -0.6136082711       -0.0142704210
 H         -8.1306920262        0.5676665227        1.6032145032
 H         -7.4481753488        2.7594105763        2.5064571110
 H         -5.3057064644        3.7728519451        1.8236127268
 H         -3.8340947397        2.5624671097        0.2080737467
 H         -3.0396527655       -0.3601262284        0.8660770692
 H         -2.8520825963       -1.9817319723       -2.3578389726
 H         -0.7871405574       -3.1050942748       -3.1361993412
 H          1.1825297563       -3.2340190725       -1.6538786323
 H          1.9483906390       -3.2645722818        0.6536078520
 C          1.1783524027       -2.2072031077        2.3158695082
 C          2.2790494931       -1.9135902226        3.2902948251
 C          1.1730992214       -0.9239577092        3.0884110288
 H          0.4430516465       -0.8087044189        3.8766457288
 H          1.3865024073       -0.0117675837        2.5549028032
 H          2.3129747961       -2.4706813557        4.2143163813
 H          3.2527441299       -1.6839866050        2.8818062133
 H          0.4542240957       -2.9581567182        2.6176169914
