  62
        -98.94565196
 C         -1.4915927482       -1.3251041002       -0.6660514513
 C         -2.7928925449       -1.2295005104       -0.1059749033
 C         -3.5965248061       -0.0721512122       -0.5084744359
 C         -3.0895206166        0.8163074168       -1.3817997944
 C         -3.7852145431        2.0451122310       -1.9013254731
 C         -3.6685371202        3.2603481099       -0.9712433441
 C         -4.5139112459        3.1871430728        0.3010664779
 H         -4.5135110154        4.1854046319        0.7433029226
 H         -5.5447144773        2.9468285055        0.0381724502
 C         -3.9997855855        2.1863768837        1.3457423282
 H         -2.9597263875        1.9308386760        1.1254446593
 H         -4.0072795250        2.6550354810        2.3327239870
 C         -4.8189354605        0.8993581269        1.4498086188
 H         -4.3410599905        0.2502305243        2.1881326087
 H         -5.8243666087        1.1340048530        1.8065539145
 C         -4.9365483179        0.1158150118        0.1361451767
 H         -5.6188405765        0.6234835951       -0.5453129170
 H         -5.3380941850       -0.8748404342        0.3631193684
 H         -2.6173908776        3.3946990782       -0.7026649945
 H         -3.9815729033        4.1390498870       -1.5402349930
 H         -4.8372313671        1.8231950255       -2.0833747447
 H         -3.3106863706        2.2932606608       -2.8531489328
 O         -1.8538657044        0.6759729144       -1.9231898835
 C         -1.0109927951       -0.3655697269       -1.5569949015
 O          0.1001559539       -0.3145808988       -2.1195547393
 O         -3.2638858438       -2.0838959203        0.6924949001
 C         -0.6436755496       -2.4908687334       -0.1829165128
 C          0.1247616736       -2.0696066691        1.0485097715
 C         -0.0788586588       -2.7071015369        2.2658927796
 C          0.5891138026       -2.2812561341        3.4004075342
 C          1.4541723244       -1.2050289849        3.3420453562
 C          1.6671085087       -0.5596984411        2.1266753612
 C          1.0218065931       -1.0114404423        0.9854146870
 H          1.1795015270       -0.5047243306        0.0482819473
 N          2.5453351430        0.5267284300        2.0561932446
 S          2.4107005711        1.7680242492        0.9394335019
 O          2.9908781596        2.9085057922        1.6210131577
 O          1.0551207374        1.9336719462        0.4732069899
 C          3.5266324294        1.2687796737       -0.3548032804
 C          4.8774470519        1.3355721089       -0.0666231331
 C          5.7920163086        0.9425489974       -1.0284817354
 C          5.3431357401        0.4898858445       -2.2606770465
 C          3.9863046287        0.4317080359       -2.5346051419
 C          3.0635389904        0.8249371739       -1.5755897436
 H          2.0024659494        0.7768324032       -1.7682381506
 H          3.6302213687        0.0793494358       -3.4897159794
 H          6.0533492210        0.1816139672       -3.0117927691
 H          6.8481551054        0.9891772430       -0.8170836677
 H          5.1815270669        1.7060674068        0.8982293835
 H          2.8912179026        0.8559687519        2.9448424990
 H          1.9590426041       -0.8570476837        4.2304115910
 H          0.4222719688       -2.7814497119        4.3423876176
 H         -0.7832887871       -3.5236080672        2.3238444041
 H         -1.3635385511       -3.2621507894        0.1249668794
 C          0.2788745654       -3.0874349692       -1.2249490643
 C          0.7501273301       -4.4989889802       -1.0485823741
 C         -0.2343581936       -4.1664312098       -2.1284990716
 H          0.0974643699       -4.1765430351       -3.1556352962
 H         -1.2597990448       -4.4810718181       -1.9992247145
 H          1.7624219131       -4.7414993365       -1.3323946464
 H          0.3917825658       -5.0427301199       -0.1876529175
 H          0.9725674844       -2.3744966656       -1.6494439193
