  62
        -98.93795625
 C         -2.2607339894       -1.2860506203        0.3592263498
 C         -2.6604009997       -0.6331889799       -0.8296096498
 C         -3.6964458599        0.4068476598       -0.6907044392
 C         -4.1839655998        0.6981554892        0.5298719209
 C         -5.2573752700        1.6734569387        0.9666502515
 C         -5.7392526303        2.7771649491        0.0283833521
 C         -4.6963630806        3.8469069294       -0.2938900576
 H         -5.1197243908        4.5218880097       -1.0407900372
 H         -4.5046172806        4.4299590091        0.6105738227
 C         -3.3523748905        3.3282400399       -0.8000144080
 H         -2.7104753007        4.1929937002       -0.9900646577
 H         -2.8693875803        2.7379528997       -0.0177318683
 C         -3.4105209705        2.5011582305       -2.0831437283
 H         -2.3815461605        2.3350259309       -2.4139566585
 H         -3.9250943507        3.0677450407       -2.8613769180
 C         -4.0813476102        1.1224327603       -1.9532842789
 H         -5.1625922002        1.1974432001       -2.0383541687
 H         -3.7276766501        0.4975926008       -2.7784388592
 H         -6.1376626103        2.3470805194       -0.8856408981
 H         -6.5722148204        3.2720796887        0.5349847624
 H         -6.1195962798        1.0592093984        1.2490321813
 H         -4.8872500000        2.1263727284        1.8921387317
 O         -3.7554859595        0.0456683488        1.6519827206
 C         -2.7896848293       -0.9443053810        1.6008475001
 O         -2.4884027391       -1.4286221114        2.7116348998
 H         -0.1201697896        0.0471589100        0.7425956902
 C          0.4920504104       -0.5374944296        0.0648400099
 C          0.0828226007       -1.8180483295       -0.2866323907
 C          0.8952810607       -2.5566265690       -1.1377999011
 C          2.0696195705       -2.0180676085       -1.6348874410
 C          2.4630920803       -0.7372901186       -1.2925040805
 C          1.6636578002        0.0055394609       -0.4344067600
 N          2.0811057400        1.3103863408       -0.0630066395
 S          3.2411438001        1.3027411205        1.1624793304
 O          2.9444559405        0.2949211500        2.1579501100
 O          3.3114494299        2.6663119003        1.6405283310
 C          4.7394951301        0.8827163112        0.3030276800
 C          5.2906399598        1.8165496917       -0.5527914796
 C          6.4459113798        1.4880975623       -1.2439722399
 C          7.0253228601        0.2399261123       -1.0683924105
 C          6.4602087004       -0.6847377882       -0.2032322009
 C          5.3043765604       -0.3631567388        0.4909013994
 H          4.8253884307       -1.0492573592        1.1706464191
 H          6.9121010906       -1.6541576582       -0.0680668014
 H          7.9234272801       -0.0137282873       -1.6091648408
 H          6.8893529196        2.2041148527       -1.9169801796
 H          4.8083505196        2.7745322316       -0.6541272692
 H          1.3093274299        1.8876758005        0.2437898509
 H          3.3667955602       -0.3051887282       -1.6898546104
 H          2.6843783806       -2.6028055081       -2.3015848613
 H          0.6045856509       -3.5565934889       -1.4153746815
 C         -1.1941693492       -2.3626663801        0.3079627392
 H         -0.9867683590       -2.6357300905        1.3541193491
 C         -1.7215867490       -3.5824597899       -0.4206221413
 C         -1.2604251086       -4.9557862099       -0.0378764019
 C         -2.6489486287       -4.5090233804        0.3046367184
 H         -3.4797187687       -4.9361860503       -0.2364869317
 H         -2.8738854986       -4.2751875109        1.3355220486
 H         -1.1407903786       -5.6948708696       -0.8156669023
 H         -0.5443230385       -5.0380271401        0.7659576480
 H         -1.9297067891       -3.3814101294       -1.4651755111
 O         -2.1787848197       -0.9041977093       -1.9598107000
