  62
        -98.94564980
 C          1.0960972002        1.4467047676        0.7537794141
 C          1.9948447303        1.4412283433       -0.3397170013
 C          2.9998067248        0.3684032827       -0.3350950164
 C          2.9893154886       -0.5432477960        0.6543628760
 C          3.9299840943       -1.7088348918        0.7514775022
 C          3.3645469701       -2.9534929768        0.0537959939
 C          2.8265273943       -2.6890076272       -1.3518776258
 H          2.4774169562       -3.6435008811       -1.7508893578
 H          1.9572063657       -2.0305969836       -1.2835942772
 C          3.8509837003       -2.0816397860       -2.3202301023
 H          3.7802649730       -2.6021300323       -3.2776600863
 H          4.8606878420       -2.2404967769       -1.9394618210
 C          3.6486258090       -0.5931355983       -2.6074732796
 H          4.2786935066       -0.3219362577       -3.4589349041
 H          2.6106649973       -0.4113912517       -2.8980627014
 C          3.9991696270        0.3589252143       -1.4574074434
 H          4.9993645421        0.1316768968       -1.0826536687
 H          4.0055805294        1.3761546504       -1.8598764175
 H          4.1513121365       -3.7086479223        0.0080097953
 H          2.5468549809       -3.3442744209        0.6606042463
 H          4.0863937136       -1.9352136416        1.8074357131
 H          4.8837311052       -1.4314901499        0.3061002317
 O          2.0889160210       -0.5233564877        1.6709580046
 C          1.1237334065        0.4673569492        1.7468090802
 O          0.3614992917        0.3700609547        2.7295122737
 O          1.9699299787        2.2888878174       -1.2697056082
 C          0.0036650237        2.4996480578        0.8345536776
 C         -0.9340480408        2.3010140766       -0.3320190053
 C         -1.2189795697        3.2754058820       -1.2782133664
 C         -2.0629823628        2.9907236340       -2.3383624275
 C         -2.6525217082        1.7464476212       -2.4634329451
 C         -2.3833572986        0.7673617005       -1.5129962327
 C         -1.5241877326        1.0495542823       -0.4649921739
 H         -1.3099603562        0.2862234575        0.2697946607
 N         -2.9539675567       -0.5123323681       -1.6015952726
 S         -3.5263923160       -1.2388751382       -0.2041530104
 O         -4.4914506215       -2.2104262202       -0.6761929233
 O         -4.0253637701       -0.2574974348        0.7308853072
 C         -2.1391645042       -2.1161551293        0.4821707582
 C         -1.4442748739       -2.9904124022       -0.3304343037
 C         -0.4094597063       -3.7304778936        0.2170333625
 C         -0.0914958057       -3.5870418532        1.5597045292
 C         -0.7929672897       -2.6999083520        2.3597943681
 C         -1.8300775957       -1.9581480757        1.8178912463
 H         -2.3916267340       -1.2502391932        2.4068080784
 H         -0.5334868494       -2.5696990317        3.3979145451
 H          0.7061493271       -4.1722122264        1.9908382465
 H          0.1445357633       -4.4179181219       -0.4020127347
 H         -1.7251664289       -3.0795285274       -1.3667589120
 H         -3.5929585221       -0.6388260361       -2.3734947500
 H         -3.3141237114        1.5294460405       -3.2884580186
 H         -2.2694711827        3.7524076017       -3.0749901732
 H         -0.7726153684        4.2523271123       -1.1942788759
 H         -0.5588763614        2.2865082843        1.7554000501
 C          0.5883299428        3.8918393571        0.9301485292
 C         -0.2186225137        4.9992700247        1.5362155570
 C          0.9542995068        4.4337311834        2.2778266625
 H          1.8473690269        5.0337912923        2.3671662137
 H          0.7637184404        3.8047843625        3.1355181077
 H         -0.1306989091        5.9911044108        1.1193051996
 H         -1.2085828511        4.7576078469        1.8933693970
 H          1.2451661273        4.1296879844        0.1020857292
