  62
        -98.95138433
 C         -1.8242836730       -1.2546896625       -0.2889083051
 C         -2.9154601417       -0.5719054359        0.2956632701
 C         -3.2293170031        0.7396917709       -0.2795477790
 C         -2.5027132807        1.2078947497       -1.3108995932
 C         -2.6858404827        2.5373655447       -1.9900648043
 C         -1.9698167557        3.6866906577       -1.2668719129
 C         -2.6433865217        4.1578915831        0.0227260693
 H         -2.1840473725        5.1107303969        0.2936827102
 H         -3.7018451375        4.3452691561       -0.1642593094
 C         -2.4872529365        3.1879168036        1.2023107343
 H         -2.2130163279        3.7490814749        2.0994501607
 H         -1.6601758877        2.5024257603        0.9989133950
 C         -3.7454241358        2.3860977838        1.5386456751
 H         -3.5042688257        1.7024432808        2.3569905202
 H         -4.5279896637        3.0648164996        1.8867134284
 C         -4.3030244322        1.5551928304        0.3756396676
 H         -5.0480307053        0.8633321478        0.7771456754
 H         -4.7858269005        2.2056965040       -0.3532755859
 H         -0.9470217614        3.3727321135       -1.0413488505
 H         -1.9194229982        4.5313997962       -1.9583016670
 H         -3.7479620334        2.7657420112       -2.0839496948
 H         -2.2588879445        2.4390469756       -2.9904292127
 O         -1.4941855912        0.4982561667       -1.8785122865
 C         -1.0962776043       -0.7172517829       -1.3496909269
 O         -0.1068386980       -1.2250429484       -1.9144282530
 O         -3.5862888789       -1.0327716426        1.2600958747
 C         -1.3520103322       -2.5618976851        0.3202571720
 C          0.0871265934       -2.4216724552        0.7545540520
 C          1.0336103451       -3.4285789851        0.6104022965
 C          2.3474217457       -3.2188913343        0.9943715302
 C          2.7519823312       -1.9971195818        1.5006873412
 C          1.8096445237       -0.9880828786        1.6587475700
 C          0.4873283672       -1.2181258394        1.3211524037
 H         -0.2298176189       -0.4218889908        1.4582943582
 N          2.1617982032        0.2970207388        2.1277924587
 S          2.0291140291        1.5328249359        0.9969860361
 O          2.5049989391        2.7192502905        1.6765527843
 O          0.6873129357        1.5894836515        0.4814184159
 C          3.1981486981        1.0693354249       -0.2681002054
 C          4.4793810869        1.5827370338       -0.1917594349
 C          5.4272298988        1.1652657402       -1.1111364554
 C          5.0821190154        0.2347476468       -2.0802553410
 C          3.7937079339       -0.2725815603       -2.1403257167
 C          2.8367450042        0.1436685879       -1.2261469077
 H          1.8268160465       -0.2361679019       -1.2624561307
 H          3.5168714635       -0.9954560931       -2.8909408864
 H          5.8200644214       -0.0964427348       -2.7938564386
 H          6.4288542098        1.5617291719       -1.0672762760
 H          4.6988396729        2.3053424253        0.5778415668
 H          3.0830393080        0.3374655646        2.5434814489
 H          3.7834050302       -1.8215737420        1.7673770860
 H          3.0708055218       -4.0108322687        0.8750800033
 H          0.7435790830       -4.3769498083        0.1882093438
 H         -1.9753478492       -2.7132885814        1.2146837965
 C         -1.5797846324       -3.7154502792       -0.6346737713
 C         -1.8786926099       -5.0879041238       -0.1112053223
 C         -2.9604699038       -4.2829783675       -0.7642875643
 H         -3.3074111574       -4.5774393646       -1.7432940880
 H         -3.7305039827       -3.8541566385       -0.1396088428
 H         -1.4851304903       -5.9401127340       -0.6444810881
 H         -1.9224849543       -5.2168837836        0.9597079483
 H         -0.9877738440       -3.6269286447       -1.5387351561
