  62
        -98.94011200
 C         -1.9766366621       -1.4092338517       -0.1261846309
 C         -1.7514066658       -0.0413488911       -0.4172947977
 C         -2.9576478211        0.7725528264       -0.6394892521
 C         -4.1711707848        0.1989808106       -0.5582673296
 C         -5.4765174790        0.9226202333       -0.7138012175
 C         -5.9995454816        1.4209734509        0.6406106133
 C         -4.9562131894        2.1732977041        1.4669599214
 H         -5.4461192306        2.5045870986        2.3852317051
 H         -4.1637854392        1.4802247205        1.7592140078
 C         -4.3329532114        3.3823945998        0.7554790550
 H         -4.9639844858        3.6856297548       -0.0808288421
 H         -4.2983176250        4.2201471849        1.4552441065
 C         -2.9036617231        3.1593646469        0.2574221389
 H         -2.2886412553        2.7661323813        1.0713064600
 H         -2.4877086495        4.1303339014       -0.0248090073
 C         -2.7556081860        2.2284626701       -0.9526578867
 H         -3.4295143278        2.5502063064       -1.7492189152
 H         -1.7269270858        2.3195490479       -1.3130938854
 H         -6.8601278406        2.0681439843        0.4617561472
 H         -6.3380175049        0.5587266191        1.2200159611
 H         -5.3431216699        1.7611911143       -1.3944366007
 H         -6.2045383284        0.2311954370       -1.1416200063
 O         -4.3486242550       -1.1157421519       -0.2696106971
 C         -3.2641596136       -1.9425901620       -0.0247909042
 O         -3.5702941274       -3.1141922773        0.2732630136
 H          1.9087390037       -2.0413142946       -0.1608152255
 C          1.5333482659       -1.6255945879        0.7613224988
 C          0.1823276725       -1.7023204438        1.0609215578
 C         -0.2625891491       -1.1420577721        2.2562978613
 C          0.6116502514       -0.4973488296        3.1089811268
 C          1.9588351031       -0.4139855489        2.8010522967
 C          2.4162365617       -0.9842466371        1.6226172244
 N          3.7936673854       -0.9137192831        1.3203367673
 S          4.4437616911        0.5819159316        0.9353884901
 O          5.8770961631        0.3927945100        0.9111683871
 O          3.9430633642        1.5620941403        1.8637004361
 C          3.8733922439        0.9261809722       -0.7206756918
 C          4.7749491051        0.8577226636       -1.7656817891
 C          4.3247386828        1.0782866870       -3.0569913463
 C          2.9835841487        1.3511772251       -3.2825475092
 C          2.0923367212        1.4109681889       -2.2229443805
 C          2.5361550798        1.1990314463       -0.9273049389
 H          1.8466491679        1.2303989288       -0.0992930016
 H          1.0440437304        1.6056488767       -2.3836662341
 H          2.6301238658        1.5168144909       -4.2882873609
 H          5.0172760093        1.0329180953       -3.8821999682
 H          5.8068342245        0.6383939047       -1.5431453724
 H          4.0847454121       -1.5835382996        0.6214276455
 H          2.6535404586        0.0990658882        3.4454783925
 H          0.2441385252       -0.0575326758        4.0242724812
 H         -1.3151348519       -1.2049326443        2.5003931177
 C         -0.8276449207       -2.3631601801        0.1538495908
 H         -1.2826814918       -3.1977467082        0.7128651736
 C         -0.2071182175       -2.9669591217       -1.0986662368
 C         -0.9642350504       -3.0310142076       -2.3906936803
 C          0.2160022175       -2.1183835380       -2.2595052279
 H          1.1242508787       -2.3774621966       -2.7843319264
 H          0.0418555211       -1.0571568953       -2.1845916372
 H         -1.9520216256       -2.5943366350       -2.4174779385
 H         -0.8660071101       -3.9203724836       -2.9951165114
 H          0.4141127297       -3.8275720778       -0.8693361286
 O         -0.6129721981        0.4856695252       -0.4920598102
