  62
        -98.94064090
 C          2.3451843444        1.0432758187       -0.0750136249
 C          2.0644425809       -0.2677538544       -0.5305926559
 C          2.8144728143       -1.3508726739        0.1241071798
 C          3.6725109925       -1.0610522397        1.1180698506
 C          4.5322773755       -2.0614213643        1.8334428063
 C          5.8970881348       -2.2142599945        1.1469761629
 C          5.8090319828       -2.4272023701       -0.3642263517
 H          5.4063594816       -1.5239859546       -0.8282392248
 H          6.8288626311       -2.5518037075       -0.7344644454
 C          4.9606280119       -3.6345663404       -0.7868756944
 H          5.4967934356       -4.1846473028       -1.5630199619
 H          4.8312040337       -4.3107088802        0.0589743746
 C          3.5893531772       -3.2760089242       -1.3623077007
 H          3.1683632989       -4.1741846578       -1.8218794755
 H          3.7071354978       -2.5286684058       -2.1508973705
 C          2.5588133910       -2.7530833327       -0.3534999826
 H          1.5858674858       -2.7267073313       -0.8529130428
 H          2.4882391004       -3.4397775653        0.4926378418
 H          6.4800251798       -1.3090697426        1.3317650299
 H          6.4207470511       -3.0551119680        1.6053639453
 H          4.6861185857       -1.7120644003        2.8558666385
 H          4.0178095219       -3.0200529744        1.8622443684
 O          3.8900058482        0.2047983454        1.5559047316
 C          3.2437692476        1.2786265648        0.9713096411
 O          3.5507790571        2.3843928225        1.4600789350
 H         -0.5132571230        0.7631867818       -1.1339230092
 C         -0.7267130313        1.5569481959       -0.4334155237
 C          0.2867775256        2.4334892208       -0.0732847968
 C          0.0058505751        3.4249433706        0.8595909468
 C         -1.2580291120        3.5340439887        1.4127980050
 C         -2.2664302096        2.6586803363        1.0501471511
 C         -1.9912240657        1.6575495232        0.1281022760
 N         -3.0073218989        0.7483188542       -0.2524874107
 S         -3.6157008775       -0.2365274171        0.9800971569
 O         -4.2289198305        0.6020768826        1.9782256594
 O         -2.5906625781       -1.1430609916        1.4551799629
 C         -4.8709761796       -1.1333238180        0.0888453122
 C         -4.5919322901       -2.3963897028       -0.3958185350
 C         -5.5681806589       -3.0690507784       -1.1142232532
 C         -6.7976564883       -2.4681040818       -1.3376306161
 C         -7.0622306341       -1.1986549301       -0.8452771550
 C         -6.0912273574       -0.5216597378       -0.1251142429
 H         -6.2537085522        0.4617430443        0.2834639828
 H         -8.0200609478       -0.7358602282       -1.0201110047
 H         -7.5548154517       -2.9940477116       -1.8974041537
 H         -5.3656322645       -4.0566807292       -1.4964215698
 H         -3.6244670152       -2.8277191719       -0.1925107372
 H         -2.6705391904        0.1380026395       -0.9880575103
 H         -3.2481311975        2.7223707026        1.4894209839
 H         -1.4606861041        4.3087852770        2.1370060036
 H          0.7938106092        4.0987807176        1.1646696430
 C          1.6765379135        2.2863496303       -0.6460998748
 H          2.2753468433        3.1335441023       -0.2862446385
 C          1.6702796067        2.3150690196       -2.1618344962
 C          1.4718623652        3.6257373488       -2.8594793776
 C          2.8132978520        2.9580234159       -2.8854321672
 H          3.1530611146        2.5139126873       -3.8090602476
 H          3.6070924665        3.3833967181       -2.2883979714
 H          0.8880790470        3.6429687647       -3.7668357757
 H          1.3560059411        4.5054209269       -2.2444945259
 H          1.2347163114        1.4328014109       -2.6110767732
 O          1.2383637981       -0.5482500034       -1.4408664848
