  62
        -98.94483622
 C         -2.1448598738        0.9951366608       -0.4814298492
 C         -2.2392801945        0.1982257185        0.6856167709
 C         -2.9513643701       -1.0790724524        0.5314864411
 C         -3.4073611780       -1.4395239396       -0.6816721572
 C         -4.1904844284       -2.6870041963       -0.9691845261
 C         -5.7001722075       -2.4387383923       -0.8411697093
 C         -6.1027727622       -1.7277315187        0.4507997334
 H         -5.6922352646       -0.7155327220        0.4431243523
 H         -7.1907836710       -1.6340963878        0.4441660474
 C         -5.6588408152       -2.4435943035        1.7340810889
 H         -6.4934270366       -2.4497461394        2.4381763272
 H         -5.4136773856       -3.4829847579        1.5129559969
 C         -4.4770945654       -1.7871062420        2.4502767096
 H         -4.6795208294       -0.7224885113        2.5909119577
 H         -4.3868708596       -2.2374106169        3.4422738270
 C         -3.1152627553       -1.9303985385        1.7587490926
 H         -2.3455262780       -1.5931549432        2.4594554354
 H         -2.9268923370       -2.9809081735        1.5267997894
 H         -6.2133418726       -3.3998677155       -0.9056911258
 H         -6.0217718360       -1.8238864838       -1.6849091328
 H         -3.9678667316       -3.0052121520       -1.9892590693
 H         -3.8794785713       -3.4702156167       -0.2803212025
 O         -3.2398061303       -0.6761490674       -1.7926382546
 C         -2.6095557410        0.5556578589       -1.7200933436
 O         -2.5165416030        1.1505299017       -2.8144109615
 H          0.2388495863        0.7628755670       -1.7177130758
 C          0.7329689063        1.2337215298       -0.8753085380
 C          0.0111181955        2.1160712502       -0.0796125950
 C          0.6532809221        2.7131276145        0.9958574667
 C          1.9771727278        2.4155344601        1.2727371500
 C          2.6872455331        1.5285085558        0.4849258103
 C          2.0563374032        0.9335481121       -0.6002387126
 N          2.7761753946        0.0275519733       -1.4104155387
 S          3.2639615461       -1.3939958198       -0.6481659192
 O          3.4381598908       -2.3566401653       -1.7149239084
 O          2.3520770569       -1.7663892500        0.4098822643
 C          4.8574697259       -0.9819459263        0.0294281624
 C          5.8644660851       -0.6249156860       -0.8461755681
 C          7.1109268033       -0.3009802542       -0.3347386699
 C          7.3283225626       -0.3423617219        1.0346496660
 C          6.3075320464       -0.7059185453        1.8997530227
 C          5.0575251282       -1.0297088381        1.3950014688
 H          4.2311733403       -1.3123630593        2.0275860840
 H          6.4782191617       -0.7378034845        2.9638388264
 H          8.2993705764       -0.0899143352        1.4303689249
 H          7.9073444893       -0.0180142497       -1.0039256549
 H          5.6531809943       -0.6122179737       -1.9023624842
 H          2.2827534573       -0.2108763938       -2.2600720911
 H          3.7169050459        1.2932171344        0.6996163587
 H          2.4619273210        2.8806615712        2.1173776678
 H          0.1138189487        3.3997835546        1.6268422124
 C         -1.4402398301        2.3409175774       -0.4297802629
 H         -1.4835161609        2.7447282308       -1.4517694946
 C         -2.1599738896        3.2903940127        0.5031143598
 C         -2.0318238908        4.7706062847        0.3096957944
 C         -3.3198899772        4.0802255691       -0.0214056017
 H         -4.1714182178        4.2355287666        0.6239119120
 H         -3.5801127825        3.9495998367       -1.0620363930
 H         -2.0014356580        5.4043373982        1.1828982548
 H         -1.4181116830        5.1157718025       -0.5084511209
 H         -2.2330932220        2.9080212252        1.5142316780
 O         -1.7603537602        0.5344145660        1.7991915046
