  62
        -98.94439488
 C          2.1567000628       -0.9558754263        0.4000249620
 C          3.1767719262       -1.1604306777       -0.5602229031
 C          4.4577875897       -0.4959070573       -0.2891997973
 C          4.5920876931        0.2415808888        0.8283689482
 C          5.8202239434        1.0216929777        1.1962107060
 C          5.7466764794        2.4575138621        0.6578528745
 C          5.3658320357        2.5447519600       -0.8201562247
 H          5.3748718704        3.6015202369       -1.0959328649
 H          4.3401086921        2.1899511679       -0.9449498023
 C          6.2918156892        1.7624401898       -1.7620898263
 H          7.2341090809        1.5443620787       -1.2581725082
 H          6.5237227662        2.3899366090       -2.6252630379
 C          5.6944753504        0.4626458988       -2.3042640581
 H          6.3342647964        0.1074340875       -3.1164607672
 H          4.7076483951        0.6628290584       -2.7291715899
 C          5.5605976496       -0.6829155638       -1.2929831476
 H          6.5164811251       -0.8439696323       -0.7906382804
 H          5.3078648942       -1.5896509507       -1.8503619307
 H          6.7155813396        2.9350963092        0.8148030516
 H          4.9995479548        3.0061572941        1.2362010637
 H          6.6983481485        0.5175661581        0.7973502347
 H          5.8941197967        1.0547256393        2.2845035445
 O          3.5956392315        0.4009980338        1.7360975289
 C          2.3502590824       -0.1798173541        1.5426350453
 O          1.5268684273        0.0613695712        2.4456181093
 O          3.0208236349       -1.8619205486       -1.5954420051
 C          0.7975592131       -1.5921890601        0.1647921488
 C         -0.2363580435       -0.5032869890        0.0233574615
 C         -0.0967796003        0.4135890466       -1.0161961453
 C         -0.9949948103        1.4510618109       -1.1719517615
 C         -2.0574669920        1.5961829101       -0.2964947805
 C         -2.2140397545        0.6799047573        0.7340055727
 C         -1.3131649503       -0.3680560051        0.8840581924
 H         -1.4460701744       -1.0644471215        1.6966866212
 N         -3.2980936523        0.8123845723        1.6151102365
 S         -4.8002085825        1.1780573693        0.9803203225
 O         -4.8954511042        2.5944887183        0.7281011758
 O         -5.7519424921        0.6415565563        1.9276984646
 C         -4.8798789671        0.2842255630       -0.5625764039
 C         -4.7530480184       -1.0904708823       -0.5264642110
 C         -4.7778676475       -1.7971727041       -1.7175075153
 C         -4.9272747043       -1.1209272385       -2.9188513446
 C         -5.0592069718        0.2585856687       -2.9380148186
 C         -5.0337649585        0.9707957362       -1.7494864722
 H         -5.1300222237        2.0439547200       -1.7194207435
 H         -5.1775571896        0.7816637907       -3.8732730381
 H         -4.9416453532       -1.6737919368       -3.8448686111
 H         -4.6775070018       -2.8705924006       -1.7054351693
 H         -4.6439470298       -1.5875743491        0.4238956085
 H         -3.3492253189        0.0969752154        2.3244595794
 H         -2.7560661382        2.4118214090       -0.3882574992
 H         -0.8672861941        2.1575925537       -1.9779868451
 H          0.7364640383        0.3034840778       -1.6966863771
 H          0.8839488257       -2.1093471433       -0.8015344347
 C          0.4837459568       -2.6132819311        1.2367338739
 C         -0.5072076138       -3.7037042283        0.9614878628
 C          0.9536989790       -4.0241695266        1.0550550532
 H          1.3112912261       -4.5628417050        1.9198246127
 H          1.4878394979       -4.2570217239        0.1456067691
 H         -1.1542067119       -4.0290403172        1.7622470343
 H         -0.9668443836       -3.7230357545       -0.0148069441
 H          0.5292109411       -2.2003211063        2.2381988548
