  62
        -98.94043557
 C         -2.0464372102       -0.4585513891        0.0993364388
 C         -2.7082574268        0.7214529616        0.5266102884
 C         -4.0559483880        0.9486658365       -0.0083564286
 C         -4.5730560535        0.0602170668       -0.8762177914
 C         -5.9501956810        0.1383980469       -1.4673939591
 C         -6.9703875918       -0.6176013552       -0.6048960168
 C         -6.9035234965       -0.2659131297        0.8812539600
 H         -5.9476915683       -0.6068410257        1.2855818673
 H         -7.6873499811       -0.8349699055        1.3858275394
 C         -7.0781551685        1.2279146222        1.1886171305
 H         -7.7673671590        1.3344231060        2.0290256119
 H         -7.5303409135        1.7320369356        0.3337187908
 C         -5.7869582138        1.9505384893        1.5774595950
 H         -5.2816660409        1.3958461242        2.3721733469
 H         -6.0543730333        2.9303573747        1.9821819908
 C         -4.7840821452        2.1842532964        0.4404640916
 H         -4.0140392556        2.8673240813        0.8111097730
 H         -5.2883498571        2.6618454012       -0.4023161290
 H         -6.7874231395       -1.6892830745       -0.7117335526
 H         -7.9704880064       -0.4041285712       -0.9865526028
 H         -5.9234482259       -0.3115294097       -2.4613284626
 H         -6.2403556982        1.1832414471       -1.5603101660
 O         -3.9040609632       -1.0458589269       -1.2825441054
 C         -2.6278179285       -1.3405396286       -0.8129300210
 O         -2.1547930843       -2.3893201348       -1.2847131353
 O         -2.1906653180        1.5451001438        1.3292657834
 C         -0.6587100018       -0.6942500638        0.6680361297
 C          0.3919553374       -0.0678816700       -0.2122716947
 C          0.4424568838       -0.3357385984       -1.5766478139
 C          1.4205208930        0.2375940619       -2.3688421041
 C          2.3688499588        1.0825129455       -1.8187003358
 C          2.3293696249        1.3528634647       -0.4578196153
 C          1.3445395519        0.7785268670        0.3355728901
 H          1.3087145560        1.0066535179        1.3922405981
 N          3.3161228272        2.1859737002        0.1079085699
 S          4.8986272255        1.6543755246       -0.0714965291
 O          5.6517436814        2.3285803309        0.9610098959
 O          5.3266124862        1.8838759604       -1.4273568309
 C          4.7955915165       -0.0948565263        0.2584164015
 C          4.7367558065       -0.5088563578        1.5746102723
 C          4.5496535526       -1.8542587745        1.8465685586
 C          4.4107971433       -2.7563289625        0.8026273286
 C          4.4752128165       -2.3251133531       -0.5128955788
 C          4.6693468290       -0.9816301962       -0.7917790887
 H          4.7284345690       -0.6082862842       -1.8006915790
 H          4.3675397223       -3.0293844560       -1.3220043200
 H          4.2477015280       -3.8004761781        1.0160659325
 H          4.5028548674       -2.1942557999        2.8686991118
 H          4.8496410116        0.2235111851        2.3581704889
 H          3.1377784610        2.4157955206        1.0754436798
 H          3.1419704610        1.5325831886       -2.4203776509
 H          1.4456892153        0.0236110338       -3.4266607123
 H         -0.2901020365       -1.0025241570       -2.0058145547
 H         -0.6552441346       -0.1448081426        1.6229105669
 C         -0.3645685507       -2.1546603612        0.9839740540
 C          0.6674960171       -2.9674208615        0.2666641506
 C          0.9164667166       -2.5211238569        1.6737650417
 H          0.8866184531       -3.2530379421        2.4661781774
 H          1.6413499156       -1.7345520247        1.8223241519
 H          0.4391752807       -4.0052639007        0.0798988303
 H          1.2330336165       -2.4974488652       -0.5222395248
 H         -1.2562030204       -2.6862948397        1.2993393417
