  62
        -98.94049097
 C         -1.9998572326       -1.4649885655       -0.2143987709
 C         -1.6957388248       -0.1874587257        0.3170667442
 C         -2.8339078056        0.5528568882        0.8814264929
 C         -4.0529842855       -0.0118632663        0.9227242201
 C         -5.3050763029        0.6201807360        1.4669978270
 C         -6.0203175082        1.5415113919        0.4687355537
 C         -5.3263788402        2.8776507900        0.1986928241
 H         -6.0409524774        3.5050673121       -0.3378963444
 H         -5.1093497066        3.3708658636        1.1467397809
 C         -4.0420187080        2.7696466332       -0.6353504440
 H         -4.0161037354        1.8002381548       -1.1385530800
 H         -4.0498328258        3.5338102738       -1.4157567431
 C         -2.7500789169        2.9484821953        0.1624399921
 H         -2.7003764840        3.9660224468        0.5562647373
 H         -1.9074063999        2.8077314535       -0.5194235590
 C         -2.5923038093        1.9632940528        1.3278557435
 H         -1.5659568790        2.0224347665        1.6991098317
 H         -3.2702110524        2.2281717377        2.1387503521
 H         -6.1510386750        1.0020554205       -0.4724499199
 H         -7.0142603204        1.7483676058        0.8722956748
 H         -5.9805226282       -0.1984180517        1.7251509092
 H         -5.0716530068        1.1762518824        2.3755185046
 O         -4.2870981094       -1.2744600801        0.4741104850
 C         -3.2773166728       -2.0215022018       -0.1126774929
 O         -3.6344511376       -3.1561732930       -0.4882836392
 O         -0.5480937565        0.3225106841        0.3251079580
 C         -0.9357908899       -2.3220076734       -0.8785760237
 C          0.3393101851       -2.2768205343       -0.0727152903
 C          0.3062727710       -2.7254667969        1.2452474323
 C          1.4370608140       -2.6816743915        2.0372060717
 C          2.6325896552       -2.2022266492        1.5302559699
 C          2.6775238663       -1.7533784062        0.2174442249
 C          1.5380235904       -1.7991741231       -0.5781319811
 H          1.5875291293       -1.4269047316       -1.5895240870
 N          3.8950258724       -1.2846835815       -0.3150221028
 S          4.6979095478        0.0125106424        0.3685855284
 O          5.9700572185        0.0781725822       -0.3154964609
 O          4.7520609520       -0.1617380487        1.7977785421
 C          3.7455737206        1.4676881859       -0.0386485703
 C          2.4423627105        1.5675720792        0.4053393890
 C          1.7068570449        2.6923073708        0.0669575017
 C          2.2821110792        3.6954276033       -0.6969004336
 C          3.5941866510        3.5814786647       -1.1317468573
 C          4.3328251930        2.4559039631       -0.8052500422
 H          5.3526638290        2.3208472919       -1.1276335638
 H          4.0406537008        4.3624976018       -1.7262215802
 H          1.7036808051        4.5685313122       -0.9557737339
 H          0.6810527591        2.7559261990        0.3921290797
 H          1.9967146287        0.7759472896        0.9856106916
 H          3.8765529274       -1.1684737967       -1.3185563215
 H          3.5190679462       -2.1474686660        2.1401420069
 H          1.3916053288       -3.0271053253        3.0593817396
 H         -0.6277937200       -3.0970623196        1.6458128247
 H         -1.3262518771       -3.3519879098       -0.8323563537
 C         -0.7271717055       -2.0004146150       -2.3518206255
 C         -1.8454915813       -1.4575691928       -3.1891588977
 C         -0.6693522183       -0.5912490822       -2.8584055103
 H          0.0294856195       -0.3559486653       -3.6481330680
 H         -0.7992331735        0.2021811459       -2.1396874432
 H         -1.9512538830       -1.8222738713       -4.1998837747
 H         -2.7874652406       -1.2578244596       -2.6992358303
 H         -0.0760416443       -2.7224058796       -2.8355503167
