  62
        -98.93977226
 C         -1.4861324055       -1.5371269163       -0.0433845062
 C         -1.5104560340       -0.1412830050        0.1764708082
 C         -2.8263150578        0.4600461814        0.4766833720
 C         -3.9052978079       -0.3417975735        0.5442381014
 C         -5.3387839449        0.0435478847        0.7987415975
 C         -6.0070184481        0.6902610768       -0.4249114826
 C         -5.1593459445        1.7383152649       -1.1408537773
 H         -4.2232693240        1.2801754299       -1.4646756341
 H         -5.7002470772        2.0425722722       -2.0409300002
 C         -4.8569696651        2.9958931257       -0.3294279783
 H         -4.3402499606        3.6928264954       -0.9940524008
 H         -5.7975435626        3.4621145844       -0.0276985021
 C         -3.9896310840        2.7958191656        0.9156248023
 H         -3.6480094252        3.7842327616        1.2360866075
 H         -4.5715133065        2.3900930012        1.7388628777
 C         -2.7392919355        1.9521240778        0.6891058107
 H         -2.1890474397        2.3461282270       -0.1724952241
 H         -2.0657453843        2.0846953606        1.5439982544
 H         -6.9505927276        1.1366897440       -0.1061055811
 H         -6.2347105375       -0.1013572995       -1.1431399604
 H         -5.8729775494       -0.8784627930        1.0389752443
 H         -5.4021423262        0.6968793510        1.6639262742
 O         -3.8270245563       -1.6898759373        0.3418027318
 C         -2.6343678846       -2.3202908585        0.0452495274
 O         -2.7216486474       -3.5565961435       -0.1053228258
 H          2.3801813968       -1.1739830765       -0.6644045651
 C          2.0924326528       -1.3351918921        0.3599816912
 C          0.8553029608       -1.8742224071        0.6721257318
 C          0.5443568881       -2.0993911848        2.0112863184
 C          1.4408258378       -1.7720320122        3.0091897409
 C          2.6621717792       -1.2006720343        2.6956009854
 C          2.9866409603       -0.9838711676        1.3625656471
 N          4.2202195077       -0.4205144023        1.0110053767
 S          4.3705524421        0.5429887744       -0.3436476952
 O          4.3934366457       -0.2736602053       -1.5320674863
 O          5.5737635475        1.3100785307       -0.0937283403
 C          2.9633194287        1.6375575489       -0.3706180714
 C          2.6978215331        2.4004015219        0.7481255462
 C          1.6289749408        3.2795317359        0.7196080481
 C          0.8512561664        3.3850295110       -0.4218963203
 C          1.1324595997        2.6146678902       -1.5374231192
 C          2.1973691115        1.7301930892       -1.5131133212
 H          2.4452394576        1.1057869936       -2.3574613466
 H          0.5197520836        2.6908881015       -2.4220742491
 H          0.0161129227        4.0677542286       -0.4394405863
 H          1.4007404413        3.8754563677        1.5889514282
 H          3.3236745958        2.3024198141        1.6206365356
 H          4.7761921711       -0.0823881214        1.7819961558
 H          3.3579759074       -0.9290811624        3.4746526063
 H          1.1838229202       -1.9510501991        4.0425024704
 H         -0.4181386529       -2.5279770680        2.2574238142
 C         -0.1709103208       -2.2158472253       -0.3796219194
 H         -0.3623255603       -3.2981641684       -0.3439573178
 C          0.2583347885       -1.8386694761       -1.7820911558
 C          1.1457510478       -2.7511272075       -2.5723649225
 C         -0.2966220667       -2.5957803962       -2.9490906414
 H         -0.5403797629       -2.0515962249       -3.8492617926
 H         -0.9730455913       -3.4107624060       -2.7353763870
 H          1.9000954412       -2.3141390497       -3.2098544330
 H          1.4512599942       -3.6762794256       -2.1071193952
 H          0.3928640105       -0.7688791397       -1.8990918789
 O         -0.4835486024        0.5821261800        0.1230292616
