  62
        -98.94110401
 C         -1.7174877797        0.1192458553       -0.9405063528
 C         -2.9222632291        0.8501571855       -0.7968509520
 C         -4.1269535423        0.0513358656       -0.5299833078
 C         -4.0441349198       -1.2867645984       -0.4297773580
 C         -5.1864903862       -2.2318500938       -0.1735853099
 C         -5.5503114261       -2.3854047161        1.3096603653
 C         -6.2590549594       -1.1829401627        1.9344674224
 H         -7.1131245655       -0.9042481255        1.3163607806
 H         -6.6492575050       -1.5079345547        2.9010644802
 C         -5.3578722083        0.0404922960        2.1528539724
 H         -5.5255556834        0.4421774034        3.1547718032
 H         -4.3099463671       -0.2643522061        2.1023750116
 C         -5.5886719367        1.1821837523        1.1629360295
 H         -6.5942429094        1.5870665971        1.2977054536
 H         -4.8728888387        1.9777684673        1.3846183147
 C         -5.4152366208        0.7857525975       -0.3088425174
 H         -5.3848091882        1.6990997053       -0.9079792691
 H         -6.2593711672        0.1800006442       -0.6374305370
 H         -6.2094201043       -3.2524931208        1.3948204148
 H         -4.6395243869       -2.6037457567        1.8719592808
 H         -4.8737976472       -3.2067129184       -0.5537314975
 H         -6.0641327337       -1.9063396320       -0.7327961539
 O         -2.8690385244       -1.9544592762       -0.5738765986
 C         -1.6891243285       -1.2745221512       -0.8174683572
 O         -0.6884959950       -2.0132124405       -0.9140742780
 O         -3.0193272062        2.1033411040       -0.8824797898
 C         -0.3698278250        0.7621408085       -1.2225921711
 C          0.2808180769        1.2896191535        0.0339502826
 C         -0.3388660483        2.2444972970        0.8327876907
 C          0.2976292045        2.7290011990        1.9605676176
 C          1.5677248170        2.2940542034        2.2972629222
 C          2.1969082720        1.3433454397        1.5028349144
 C          1.5427447438        0.8367212480        0.3888920144
 H          2.0279374339        0.0832384314       -0.2125365045
 N          3.4814192989        0.8768902847        1.8145401798
 S          4.5808251777        0.5718764384        0.5895461939
 O          5.8737003669        0.6745681879        1.2319461949
 O          4.3640283469        1.4360835742       -0.5466177720
 C          4.2947025155       -1.1265797715        0.1426891368
 C          4.0779490360       -1.4599728980       -1.1791997365
 C          3.8773771212       -2.7901511934       -1.5118271588
 C          3.8989510450       -3.7588992222       -0.5208623281
 C          4.1223425376       -3.4084460456        0.8021083402
 C          4.3238764166       -2.0803520135        1.1405141137
 H          4.5039271155       -1.7701294554        2.1563114917
 H          4.1376431856       -4.1662012049        1.5689188681
 H          3.7390196331       -4.7929224432       -0.7826202499
 H          3.7006349743       -3.0641373928       -2.5396667720
 H          4.0640759956       -0.6742781746       -1.9187279036
 H          3.9157553703        1.3210240676        2.6102789673
 H          2.0694292714        2.6864661518        3.1689652900
 H         -0.1942568460        3.4659000966        2.5776863389
 H         -1.3201428292        2.6011214961        0.5603380900
 H          0.2684980340       -0.0459001867       -1.6054963961
 C         -0.4233976752        1.8609868345       -2.2685683462
 C          0.8610387133        2.3301680017       -2.8810806454
 C         -0.1127544658        1.5341081895       -3.6963726204
 H         -0.6678565408        2.0385134301       -4.4731075118
 H          0.1366312070        0.5097351894       -3.9327648447
 H          0.9720756972        3.3819274434       -3.0971631893
 H          1.7766551956        1.8561482655       -2.5574875639
 H         -1.1897090739        2.6001073884       -2.0770256424
