  62
        -98.93786439
 C         -2.1412945216       -1.2175556331       -0.1574487938
 C         -2.6118724971       -0.0773208805       -0.8459741445
 C         -4.0038676208        0.3355617269       -0.5718534814
 C         -4.7392116953       -0.3922964045        0.2892476363
 C         -6.1498336974       -0.1410136168        0.7508345864
 C         -6.2377692136        0.9925820333        1.7861670551
 C         -5.3942472693        2.2240587999        1.4656490937
 H         -5.4493041555        2.8972707967        2.3253020929
 H         -4.3497451516        1.9261543831        1.3555311945
 C         -5.8303575030        3.0088758001        0.2307226825
 H         -5.1925821163        3.8943752999        0.1672140741
 H         -6.8589343302        3.3501820493        0.3683451213
 C         -5.7419490625        2.2633444500       -1.1023035688
 H         -5.8566158755        3.0057910553       -1.8976989598
 H         -6.5655517113        1.5632411255       -1.2138885328
 C         -4.4117609576        1.5599797627       -1.3552259832
 H         -4.3715915576        1.2628041408       -2.4104134556
 H         -3.5954733475        2.2806999492       -1.2292208000
 H         -7.2842304291        1.2829101881        1.8929454674
 H         -5.8971013708        0.5984684630        2.7467400271
 H         -6.7913671844        0.0601780536       -0.1018131919
 H         -6.4970797802       -1.0653413646        1.2177523843
 O         -4.2426868652       -1.4930831056        0.9235962732
 C         -2.9476109943       -1.9289536601        0.7296578492
 O         -2.6339676580       -2.9398528955        1.3906199556
 O         -1.9058594189        0.5802824068       -1.6555986863
 C         -0.7182810637       -1.7028773633       -0.3679839058
 C          0.2528608013       -0.6055710899       -0.0068577134
 C          0.1584034816       -0.0193396830        1.2530129471
 C          1.0191703503        0.9930696334        1.6300018922
 C          1.9987982819        1.4418487971        0.7611167476
 C          2.1103895075        0.8554158046       -0.4916418123
 C          1.2481000762       -0.1686330751       -0.8658106993
 H          1.3476121215       -0.6082346549       -1.8456312955
 N          3.1101701930        1.2950436370       -1.3731999718
 S          4.6458734894        1.5596049712       -0.7691164601
 O          4.7039009264        2.8457496118       -0.1204788058
 O          5.5309830515        1.3821061862       -1.8986948414
 C          4.8983500395        0.2647899402        0.4330020708
 C          5.1098580292        0.5859054707        1.7580526894
 C          5.2720811216       -0.4372710034        2.6785671612
 C          5.2164775149       -1.7574027702        2.2601628812
 C          5.0063521238       -2.0641570026        0.9242374771
 C          4.8450117529       -1.0454415778       -0.0002747796
 H          4.6873407126       -1.2512101453       -1.0466807216
 H          4.9650099574       -3.0921226673        0.6015471076
 H          5.3379315087       -2.5529594485        2.9783253910
 H          5.4376189321       -0.2017019453        3.7175366146
 H          5.1443253471        1.6253496877        2.0411783906
 H          3.1308042331        0.8076358754       -2.2563086627
 H          2.6662381753        2.2441549839        1.0304778753
 H          0.9258847178        1.4419620541        2.6073091840
 H         -0.6098673281       -0.3665106542        1.9309070612
 H         -0.5749132154       -2.5301825801        0.3419560988
 C         -0.5490916796       -2.2353724484       -1.7753735333
 C          0.4950226760       -3.2703585210       -2.0665872952
 C         -0.9554782616       -3.6471762631       -2.0675164570
 H         -1.4340817290       -3.8610339300       -3.0115111528
 H         -1.3356410630       -4.2338549435       -1.2438652716
 H          1.0121660865       -3.2320798634       -3.0137486824
 H          1.1041419782       -3.6096145792       -1.2426014856
 H         -0.7605866793       -1.4889849071       -2.5327174373
