  62
        -98.92953357
 C         -2.4943826103       -1.1423711406       -0.1241956391
 C         -2.6260757903        0.2579303395        0.0210817793
 C         -3.9801397703        0.7710940499        0.3263207887
 C         -4.9895708003       -0.1034906400        0.4879159495
 C         -6.4427121303        0.1801319903        0.7628406991
 C         -7.1952463502        0.6774545290       -0.4811933815
 C         -6.4600529902        1.7413323281       -1.2916466926
 H         -5.4975766901        1.3425938577       -1.6169499721
 H         -7.0494197701        1.9395674371       -2.1907631329
 C         -6.2418912502        3.0707007089       -0.5729314940
 H         -5.8063656302        3.7627892881       -1.2981351447
 H         -7.2090941803        3.4759460992       -0.2675614746
 C         -5.3231075204        3.0284611502        0.6506957861
 H         -5.0542684504        4.0612259605        0.8912280650
 H         -5.8424883904        2.6360789211        1.5209484765
 C         -4.0130233503        2.2764819400        0.4378473970
 H         -3.5220178603        2.6598466090       -0.4639872133
 H         -3.3304460604        2.5222124709        1.2605786768
 H         -8.1660570503        1.0627814993       -0.1649615020
 H         -7.3697075102       -0.1798472517       -1.1361471306
 H         -6.8890062204       -0.7633676093        1.0852442800
 H         -6.5383276904        0.8873266512        1.5813064383
 O         -4.8052764003       -1.4512484501        0.3787168110
 C         -3.5751934203       -2.0018302804        0.0834639117
 O         -3.5656061203       -3.2489120304        0.0414108230
 H          1.2248966898       -0.5558718317       -1.1062000594
 C          1.0766792297       -0.6379928905       -0.0407110294
 C         -0.0817641103       -1.2142599200        0.4541709511
 C         -0.2487463104       -1.2893757185        1.8348567412
 C          0.7073031095       -0.7828191775        2.6929914908
 C          1.8578398895       -0.1972357681        2.1947581802
 C          2.0399653997       -0.1261722496        0.8212919702
 N          3.2055763897        0.4726140599        0.3109764396
 S          4.6627124496        0.0686421807        1.0642404302
 O          4.6977567896       -1.3502270390        1.3406619117
 O          4.8481327095        0.9349292020        2.2016271393
 C          5.8418315597        0.4800054294       -0.2077679501
 C          6.2469734098       -0.5046312916       -1.0892889690
 C          7.1485315399       -0.1788108527       -2.0901560893
 C          7.6250218899        1.1195368672       -2.1936377807
 C          7.2092129798        2.0966974382       -1.3014873918
 C          6.3085317997        1.7775987293       -0.2976389815
 H          5.9651162097        2.5008762400        0.4234135177
 H          7.5845870198        3.1039263381       -1.3837252828
 H          8.3275282400        1.3701578764       -2.9727281009
 H          7.4762167100       -0.9370011034       -2.7831235885
 H          5.8593896198       -1.5031350815       -0.9643939880
 H          3.2709524798        0.3934866988       -0.6944724203
 H          2.6161897395        0.1990311826        2.8511204699
 H          0.5585426194       -0.8439901064        3.7610889408
 H         -1.1480125605       -1.7466500581        2.2269352416
 C         -1.1584814102       -1.7973154309       -0.4291766783
 H         -1.2911177602       -2.8512482106       -0.1317666472
 C         -0.7935636801       -1.8117988425       -1.9064665483
 C         -1.8543363800       -1.7638666837       -2.9646024684
 C         -0.9292120000       -0.6008852635       -2.7786264696
 H         -0.1752494500       -0.4242433943       -3.5321852997
 H         -1.3129004401        0.2981933970       -2.3237333206
 H         -1.7336653399       -2.3861557446       -3.8386895677
 H         -2.8799608300       -1.6619145933       -2.6406016986
 H          0.0500087499       -2.4659604727       -2.1063900575
 O         -1.6701176603        1.0669269494       -0.1023730215
