  62
        -98.94295789
 C          2.4958459290        0.8616050740        0.4857534588
 C          2.5544657462       -0.3364415393       -0.2660634791
 C          3.7134592002       -1.1972094549        0.0026003031
 C          4.6163181930       -0.8352053706        0.9321143045
 C          5.8384269601       -1.6169038724        1.3316952309
 C          7.0505394399       -1.3901384177        0.4177528836
 C          6.9525097328       -2.0360849652       -0.9648910596
 H          7.9470878531       -1.9862670803       -1.4125610167
 H          6.6979638304       -3.0906125922       -0.8545761318
 C          5.9512582038       -1.3589993482       -1.9112833433
 H          5.7092916464       -0.3628532970       -1.5335696508
 H          6.4111127150       -1.2254247986       -2.8931341479
 C          4.6520300571       -2.1368130641       -2.1212118857
 H          4.8682750346       -3.0831498994       -2.6219195416
 H          4.0032148900       -1.5497834381       -2.7761892237
 C          3.8778482098       -2.4327376491       -0.8300202770
 H          2.8792761484       -2.7843709923       -1.1007900889
 H          4.3815232725       -3.2128526544       -0.2597560084
 H          7.2083440646       -0.3147839170        0.3072879315
 H          7.9242384564       -1.8032509971        0.9270956953
 H          6.1014660462       -1.2883625771        2.3394718377
 H          5.5993786411       -2.6801843544        1.3641596313
 O          4.5069097635        0.3131082009        1.6530065216
 C          3.4592416129        1.1935737280        1.4378088598
 O          3.4912682352        2.2167715778        2.1519406072
 H         -0.9050864129        1.6730435637       -1.3204528315
 C         -1.0154560292        1.1668743440       -0.3741154995
 C          0.0337577430        1.1519657506        0.5300287368
 C         -0.1478567888        0.4982381979        1.7463722621
 C         -1.3393277601       -0.1366428721        2.0370891469
 C         -2.3785867017       -0.1356669881        1.1224093526
 C         -2.2137638381        0.5228956090       -0.0872265687
 N         -3.2579888042        0.5219917477       -1.0245200035
 S         -4.8212810283        0.8497798216       -0.5184841715
 O         -5.5012780521        1.3403729107       -1.6974163530
 O         -4.8340038938        1.7168986640        0.6366261074
 C         -5.4836797150       -0.7470188414       -0.0919382833
 C         -6.0531005920       -0.9454338750        1.1505175403
 C         -6.5776491385       -2.1915718114        1.4565705450
 C         -6.5245015244       -3.2116166279        0.5191417255
 C         -5.9510214492       -2.9955392776       -0.7251380308
 C         -5.4262452262       -1.7518002594       -1.0377175494
 H         -4.9756265821       -1.5441019151       -1.9939319409
 H         -5.9110891794       -3.7914446871       -1.4513598623
 H         -6.9325075991       -4.1807480948        0.7594095626
 H         -7.0240582446       -2.3614139960        2.4232321469
 H         -6.0678691752       -0.1245595760        1.8499029142
 H         -3.0408919619        0.9989509745       -1.8872060565
 H         -3.3090371513       -0.6335384202        1.3409741442
 H         -1.4613304258       -0.6414644921        2.9835456151
 H          0.6648066433        0.4942066585        2.4606465962
 C          1.3530601042        1.8364661803        0.2662030408
 H          1.4788360246        2.6280344673        1.0194540700
 C          1.4597433903        2.4559738317       -1.1117243125
 C          0.8820060609        3.8132679306       -1.3757435582
 C          2.3679965660        3.6308541916       -1.3076521034
 H          2.9387410506        3.6955672953       -2.2218969253
 H          2.8919589721        4.0024078230       -0.4388927541
 H          0.3944045139        4.3176611042       -0.5549432103
 H          0.4349046252        4.0075576173       -2.3393793981
 H          1.4209286256        1.7180592207       -1.9051237482
 O          1.6891828294       -0.6711600545       -1.1159038048
