  62
        -98.93987198
 C          2.7016403931        0.7272866664        0.2785279575
 C          2.7376513594       -0.3594303541        1.1847600889
 C          3.2711583934       -1.6186289896        0.6551692936
 C          3.6932203593       -1.6792411260       -0.6211834534
 C          4.2787264433       -2.8863385986       -1.3024236192
 C          3.2284434217       -3.8529599767       -1.8669147713
 C          2.4673598531       -4.6693418290       -0.8214873572
 H          1.9259218183       -5.4507313892       -1.3582342545
 H          3.1792403992       -5.1627037185       -0.1590145248
 C          1.4645565716       -3.8568846098        0.0099782687
 H          0.5181640900       -4.3989917096        0.0702583465
 H          1.2588192087       -2.9088259269       -0.4931871224
 C          1.9156816482       -3.5714482676        1.4427622371
 H          1.9990047625       -4.5102478547        1.9945682163
 H          1.1496363030       -2.9622392276        1.9296649146
 C          3.2514095140       -2.8232771130        1.5473261459
 H          3.3715322982       -2.4773625741        2.5769104411
 H          4.0772100268       -3.4911424110        1.3040357531
 H          3.7485122152       -4.5472880218       -2.5308430321
 H          2.5195495172       -3.2828008364       -2.4719537911
 H          4.9310818076       -3.4186147103       -0.6097046676
 H          4.8827030323       -2.5121175145       -2.1317148133
 O          3.6458578978       -0.6106997561       -1.4598358158
 C          3.1224546132        0.6064575098       -1.0462277110
 O          3.0967430502        1.4786622860       -1.9342234298
 O          2.3371961317       -0.2819566674        2.3782942604
 C          2.1243709486        2.0504023803        0.7499763497
 C          0.8358876905        2.3210196083        0.0108858613
 C          0.5904792760        3.4762615119       -0.7173978243
 C         -0.6142696849        3.6408835741       -1.3805467887
 C         -1.5940644908        2.6673910644       -1.3314173555
 C         -1.3642227166        1.5117465766       -0.5943695636
 C         -0.1600852770        1.3527706538        0.0739759882
 H          0.0207765329        0.4547582507        0.6523268932
 N         -2.3448618277        0.5009650618       -0.5462890670
 S         -3.9396250588        0.9918258673       -0.2730507079
 O         -4.4863720019        1.4779175408       -1.5147793887
 O         -3.9926271680        1.9114152702        0.8417871242
 C         -4.7056036081       -0.5575286475        0.1577316041
 C         -5.0723822301       -1.4205902188       -0.8574716174
 C         -5.6473369202       -2.6371039331       -0.5262067451
 C         -5.8447567891       -2.9682820964        0.8062987988
 C         -5.4726353939       -2.0910337282        1.8138068831
 C         -4.8952729160       -0.8732779942        1.4896063155
 H         -4.5980976355       -0.1574375834        2.2393905674
 H         -5.6297758988       -2.3499212407        2.8485572236
 H         -6.2944392555       -3.9148334197        1.0615071588
 H         -5.9404975964       -3.3209916539       -1.3063492253
 H         -4.9087764638       -1.1165955988       -1.8781533442
 H         -2.0885297784       -0.2359999002        0.0972152074
 H         -2.5343672510        2.7881423714       -1.8445026019
 H         -0.7916621297        4.5419292364       -1.9484187536
 H          1.3424096522        4.2458012589       -0.7735793754
 H          1.8774223810        1.8972375605        1.8112280298
 C          3.1432552885        3.1635382342        0.6448280993
 C          3.0235818791        4.3717978504        1.5233558199
 C          4.1099506345        3.3699888200        1.7708689342
 H          5.1275393956        3.6409756877        1.5329891487
 H          4.0210499229        2.7191448612        2.6285386531
 H          3.2967468772        5.3339970194        1.1174235329
 H          2.1961871741        4.4051048949        2.2160897682
 H          3.5163553904        3.2973223973       -0.3638794729
