  62
        -98.93368422
 C          2.0053030306        0.5793205004       -0.0397913209
 C          2.6387284609       -0.5603608694        0.5170010093
 C          4.0028706108       -0.8580911894        0.0544657491
 C          4.5671851105       -0.0668595896       -0.8735488412
 C          5.9247011204       -0.1962907696       -1.5175474715
 C          7.1090705406       -0.5465835292       -0.6058769316
 C          7.0155507709        0.0065131312        0.8237661283
 H          7.9441312309        0.5278846213        1.0635917179
 H          6.2061467108        0.7353818811        0.8914955582
 C          6.8069794812       -1.0869080086        1.8744863386
 H          7.4602522012       -1.9293916186        1.6369971487
 H          7.1142422014       -0.7005222183        2.8493336085
 C          5.3722082513       -1.5927195187        2.0205849091
 H          5.3838088415       -2.4438048585        2.7058463793
 H          4.7516306213       -0.8195320386        2.4815539390
 C          4.6845698511       -2.0220431791        0.7142785193
 H          5.3851742610       -2.5120818392        0.0424153593
 H          3.8922612012       -2.7313370091        0.9688909397
 H          7.2256908208       -1.6285139992       -0.5598743213
 H          8.0056757505       -0.1550672893       -1.0894475519
 H          5.8533339103       -0.9427630398       -2.3140289412
 H          6.1045285002        0.7688856203       -1.9971070918
 O          3.9154274003        1.0050006302       -1.4017449914
 C          2.6303898704        1.3600784602       -1.0115863812
 O          2.1921480201        2.3664017100       -1.5972396514
 O          2.0819865211       -1.3006944192        1.3720819696
 C          0.6075604907        0.8921161904        0.4648452793
 C         -0.4212162494        0.2336819200       -0.4171321603
 C         -0.5004455797        0.5281208296       -1.7752949004
 C         -1.4552009698       -0.0795493807       -2.5701075200
 C         -2.3465061996       -0.9922240706       -2.0313664196
 C         -2.2696032293       -1.2977422902       -0.6799833695
 C         -1.3140198092       -0.6823738599        0.1185121801
 H         -1.2524064590       -0.9327513196        1.1690056602
 N         -3.1916225291       -2.2122057502       -0.1252150690
 S         -4.7930061891       -1.7113393604       -0.1523571489
 O         -5.4839310389       -2.5613187202        0.7898322615
 O         -5.2720788094       -1.7367132808       -1.5100612988
 C         -4.7235274692       -0.0339852102        0.4484907907
 C         -4.5718888195        1.0022630196       -0.4510714697
 C         -4.4128879295        2.2904536897        0.0340329999
 C         -4.4051194693        2.5186430401        1.4013712999
 C         -4.5636741890        1.4675094603        2.2918233902
 C         -4.7176796489        0.1764812702        1.8131864606
 H         -4.8460236387       -0.6681827796        2.4713106709
 H         -4.5590259088        1.6490045406        3.3547494501
 H         -4.2713009893        3.5215575202        1.7741825096
 H         -4.2879295898        3.1106813596       -0.6542441203
 H         -4.5845859497        0.7841490093       -1.5063055296
 H         -2.9458766789       -2.5002748999        0.8117874010
 H         -3.1049787397       -1.4650017809       -2.6342704693
 H         -1.5065701500        0.1591492890       -3.6217571001
 H          0.1942339601        1.2400716096       -2.1950176107
 H          0.5572912310        0.4020991507        1.4497064695
 C          0.3558550006        2.3796700104        0.6772434590
 C         -0.7511924696        3.1360424101        0.0101598990
 C         -0.8399328993        2.8188264605        1.4701375391
 H         -0.7219330692        3.6172607207        2.1865666888
 H         -1.5413366292        2.0538178705        1.7691261894
 H         -0.5466090198        4.1518743601       -0.2913594014
 H         -1.4036121197        2.6034824099       -0.6635333508
 H          1.2755749606        2.9303063606        0.8417463786
