  62
        -98.93664224
 C         -1.7618617402       -0.4915143470       -0.1970921270
 C         -2.8607966700       -1.1841291089        0.3633461293
 C         -4.1900914140       -0.7695600263       -0.1036228691
 C         -4.2960692305        0.2030555032       -1.0269182347
 C         -5.5677199096        0.7150640847       -1.6507240142
 C         -6.5496545695        1.4330008020       -0.7044761321
 C         -7.6417914646        0.5280993448       -0.1205092025
 H         -8.5840961367        1.0796161583       -0.1074712897
 H         -7.7863901695       -0.3224863973       -0.7877038735
 C         -7.3998878191        0.0239480525        1.3055152957
 H         -7.6268514978        0.8266662039        2.0108794563
 H         -8.1033467479       -0.7893779843        1.4962317128
 C         -5.9836906139       -0.4650539224        1.6091612629
 H         -5.9979364141       -0.9725876327        2.5757186840
 H         -5.3158702588        0.3925217479        1.7209222501
 C         -5.3854214045       -1.4053907002        0.5447825614
 H         -5.0317816121       -2.3242686267        1.0165994532
 H         -6.1333648396       -1.6675036713       -0.2018672024
 H         -5.9924567484        1.9234707569        0.0933062538
 H         -7.0340456599        2.2172297568       -1.2884754183
 H         -5.2485861275        1.4119759168       -2.4284128276
 H         -6.0789128287       -0.1178768180       -2.1388136806
 O         -3.2099323387        0.8339891141       -1.5534905180
 C         -1.9220764756        0.5180339791       -1.1457049256
 O         -1.0298307116        1.1922421280       -1.6950814677
 H          2.1962943530        0.0413241862       -0.2680289673
 C          1.6635814693        0.6576329841        0.4359121848
 C          0.3600761123        0.3472158765        0.7912838504
 C         -0.2982205718        1.1722762305        1.6999973100
 C          0.3199127311        2.2974609751        2.2083625387
 C          1.6114560976        2.6194558846        1.8307317428
 C          2.2866550287        1.7912749778        0.9418094792
 N          3.6117384320        2.0691458136        0.5989330931
 S          4.4425828840        1.3547854162       -0.6500243180
 O          5.6862293753        2.0946719211       -0.7043390042
 O          3.6858088573        1.3124426364       -1.8790275379
 C          4.7742769595       -0.2988654291       -0.0749133957
 C          4.8513620396       -1.3185159735       -1.0026599563
 C          5.1490118469       -2.6014719428       -0.5703850401
 C          5.3617115177       -2.8423882547        0.7778347363
 C          5.2828730828       -1.8076125054        1.6970551130
 C          4.9913448020       -0.5218176597        1.2702958878
 H          4.9226934926        0.3018410835        1.9609423030
 H          5.4476330085       -1.9983045906        2.7453027478
 H          5.5889620826       -3.8420993366        1.1127249938
 H          5.2112673800       -3.4068604578       -1.2848920897
 H          4.6667925625       -1.0884644996       -2.0403854179
 H          3.9759444225        2.9668074343        0.8753761372
 H          2.0925535149        3.5042296932        2.2182150080
 H         -0.2085069461        2.9342910300        2.9019443830
 H         -1.3101068420        0.9251348744        1.9912630369
 C         -0.3588559137       -0.8615134843        0.2468221665
 H         -0.4944932185       -1.5810391911        1.0685293557
 C          0.3818528546       -1.5495031654       -0.8806860919
 C          1.4234135872       -2.5847648457       -0.5813604546
 C          0.1004441079       -2.9960566725       -1.1520593800
 H          0.0592587494       -3.3293371340       -2.1781934465
 H         -0.6077463693       -3.4903788206       -0.5033056063
 H          2.2945857776       -2.6342739531       -1.2166833800
 H          1.6222721919       -2.8094827612        0.4554815999
 H          0.5361473177       -0.8989421185       -1.7355327770
 O         -2.7364480365       -2.1059997256        1.2136477214
