  62
        -98.94591075
 C         -1.2982435635       -1.4219073179        0.6255819202
 C         -2.3755110595       -1.3146203393       -0.2886335030
 C         -3.3668704259       -0.2673153121        0.0064033207
 C         -3.2097841532        0.5124705554        1.0903021374
 C         -4.1217170876        1.6399638105        1.4786246467
 C         -3.6742801667        2.9748997232        0.8658493689
 C         -3.3619487578        2.8982428554       -0.6284332804
 H         -3.0810762900        3.9025954173       -0.9522611819
 H         -2.4948402890        2.2519909233       -0.7821409301
 C         -4.5257782579        2.3951993254       -1.4935024096
 H         -4.6083751901        3.0337192461       -2.3754807318
 H         -5.4630204912        2.4824180299       -0.9424816646
 C         -4.3666891643        0.9595838633       -1.9965925929
 H         -5.1229178531        0.7836217002       -2.7662270573
 H         -3.3872820435        0.8410382679       -2.4666297326
 C         -4.5291624785       -0.1378860187       -0.9376257962
 H         -5.4580462738        0.0180331338       -0.3851293353
 H         -4.5975616141       -1.0962602452       -1.4603872772
 H         -2.7781542951        3.3159869115        1.3893476073
 H         -4.4621687739        3.7107833732        1.0369547095
 H         -5.1336234578        1.4036823773        1.1544448344
 H         -4.1122789793        1.7283467738        2.5665501851
 O         -2.1664397785        0.3767562733        1.9493261473
 C         -1.1953133922       -0.5881256685        1.7421959881
 O         -0.3035107974       -0.6059268848        2.6154752328
 H          2.2096436255       -1.2588752597        0.8236656894
 C          1.9698272858       -1.3589981006       -0.2243171015
 C          0.7806721480       -1.9643807535       -0.6081134567
 C          0.5008813091       -2.0886354347       -1.9650624695
 C          1.3957775758       -1.6176618275       -2.9082492454
 C          2.5750936967       -1.0052418375       -2.5223364814
 C          2.8625120070       -0.8720221813       -1.1691160809
 N          4.0559025212       -0.2625916322       -0.7484055329
 S          4.0404325503        0.8007939729        0.5430388312
 O          5.2665270618        1.5551306788        0.3941497806
 O          3.8904954190        0.0781611114        1.7792568962
 C          2.6412533517        1.8632792663        0.2409617430
 C          1.4641747435        1.6851521369        0.9369468635
 C          0.3822804373        2.4981380308        0.6362760852
 C          0.4920193799        3.4672696838       -0.3474773835
 C          1.6850899500        3.6373134577       -1.0343115529
 C          2.7691511299        2.8273520569       -0.7412399767
 H          3.7172019575        2.9373289140       -1.2424654628
 H          1.7697797717        4.3958647918       -1.7956116988
 H         -0.3559826004        4.0935494871       -0.5757842447
 H         -0.5400481681        2.3566670511        1.1777229096
 H          1.3940117005        0.9250408293        1.6995390721
 H          4.6304613781        0.0902542987       -1.5002200412
 H          3.2707264235       -0.6357456976       -3.2602485797
 H          1.1685119878       -1.7216483872       -3.9583418384
 H         -0.4319097895       -2.5328214613       -2.2728784649
 C         -0.1790078355       -2.4394713446        0.4572745243
 H          0.3640824608       -2.4426643523        1.4123194100
 C         -0.6870793825       -3.8430743071        0.1947441224
 C          0.2394580640       -4.9990006561        0.4163283831
 C         -0.9080584082       -4.7674180072        1.3521944732
 H         -1.7483078172       -5.4446583795        1.3178326167
 H         -0.6915876201       -4.3917784787        2.3421854600
 H          0.1896484557       -5.8377543398       -0.2607987465
 H          1.2352145321       -4.7790990146        0.7721614232
 H         -1.3870217064       -3.9068848574       -0.6272320107
 O         -2.5284170259       -2.0487813072       -1.2986484996
