  62
        -98.94467548
 C          1.9951660111        0.7610727433        0.5638707315
 C          1.9714466304        0.0647940360       -0.6684694300
 C          2.0494134824       -1.3969581763       -0.5750312134
 C          2.0705473329       -1.9896721418        0.6320297870
 C          2.1000791389       -3.4720905996        0.8904172277
 C          3.5034158854       -4.0917361726        0.8332356564
 C          4.1063917771       -4.2104246984       -0.5670266884
 H          4.9856226453       -4.8520958560       -0.4830324394
 H          3.3964294363       -4.7129877964       -1.2244213500
 C          4.5290331922       -2.8726070114       -1.1896783111
 H          4.5968987214       -2.1126105056       -0.4079818361
 H          5.5245118742       -2.9729785354       -1.6276973426
 C          3.5983688028       -2.3645913403       -2.2909783173
 H          3.6202381044       -3.0547031533       -3.1371801925
 H          3.9701446916       -1.3962105127       -2.6348433836
 C          2.1404520067       -2.1804864852       -1.8490911760
 H          1.6531567429       -3.1486880679       -1.7344092880
 H          1.6109064907       -1.6145464347       -2.6195060792
 H          3.4332210900       -5.0939682380        1.2621344639
 H          4.1691650887       -3.5034889595        1.4688616433
 H          1.6972483770       -3.6181504815        1.8952701348
 H          1.4447465009       -3.9767032110        0.1795630225
 O          2.0486346143       -1.2855212891        1.7965853840
 C          2.0172223413        0.0995340686        1.7898238215
 O          2.0146420888        0.6197965998        2.9261703096
 O          1.8934381538        0.6339263857       -1.7889626552
 C          1.8845743543        2.2753522859        0.5747610348
 C          0.5967179726        2.6748232470       -0.1054191593
 C          0.5010988558        3.7013859820       -1.0354428182
 C         -0.7088888057        3.9755030466       -1.6501408671
 C         -1.8370753102        3.2301395206       -1.3629515640
 C         -1.7556850260        2.2148225208       -0.4156667816
 C         -0.5514301471        1.9625789551        0.2178256365
 H         -0.4993365900        1.1705135927        0.9521561500
 N         -2.8849471978        1.4483685369       -0.0757411640
 S         -2.6475586429       -0.1703057737        0.3468726924
 O         -2.2939146471       -0.2371606775        1.7440752729
 O         -1.7417684899       -0.8113645982       -0.5793169747
 C         -4.3042718713       -0.7938275577        0.1253128928
 C         -4.6221994781       -1.4901026829       -1.0252096870
 C         -5.9220680444       -1.9394945468       -1.1993364361
 C         -6.8771188242       -1.6829990633       -0.2272201344
 C         -6.5428593633       -0.9830309786        0.9228361541
 C         -5.2449268871       -0.5325829549        1.1039821952
 H         -4.9345580202        0.0060351037        1.9840993783
 H         -7.2871422060       -0.7876551128        1.6778001836
 H         -7.8878139939       -2.0329962240       -0.3654536947
 H         -6.1834230223       -2.4864359366       -2.0908329486
 H         -3.8436367338       -1.6702095596       -1.7492279470
 H         -3.6393848411        1.5486059162       -0.7417380833
 H         -2.7723599114        3.4285322033       -1.8637942793
 H         -0.7687573413        4.7699943728       -2.3784904176
 H          1.3762107426        4.2761886043       -1.2908120355
 H          1.8214480135        2.5700822583        1.6331136135
 C          3.1168009921        2.9056025200       -0.0396111176
 C          3.5780096147        4.2589237708        0.4087903670
 C          4.3533682376        3.0366323017        0.7960168133
 H          5.3114721767        2.8614065139        0.3303286333
 H          4.2958626112        2.6938583961        1.8192330839
 H          4.0090186661        4.9254642222       -0.3228540367
 H          3.0011431946        4.7547293922        1.1747938373
 H          3.2425226548        2.6371888241       -1.0821939045
