  62
        -98.93837139
 C         -1.9848925480       -0.9880741709        0.1839951308
 C         -2.3891962083        0.2395889753       -0.3891668735
 C         -3.7228254747        0.7399663046       -0.0023334898
 C         -4.4750720179        0.0336091523        0.8612219026
 C         -5.8372466977        0.3131962787        1.4613002385
 C         -6.7434927005        1.3936372547        0.8770018375
 C         -7.2763528255        1.0932830572       -0.5236118197
 H         -7.9858990136        0.2648275512       -0.4549771608
 H         -7.8232617687        1.9705743368       -0.8760525979
 C         -6.2241432532        0.7130377896       -1.5622523515
 H         -6.7408545654        0.5234362142       -2.5070655407
 H         -5.7391954071       -0.2201050735       -1.2685139534
 C         -5.1516815251        1.7687607516       -1.8235116191
 H         -5.6250668926        2.7179455232       -2.0822185342
 H         -4.5697380389        1.4391169934       -2.6884626296
 C         -4.1650253332        2.0113865243       -0.6681174985
 H         -3.2630807551        2.4692649601       -1.0848685049
 H         -4.5732840700        2.7055841262        0.0624941774
 H         -6.2422708967        2.3569531142        0.8958464091
 H         -7.6041558707        1.4725539343        1.5468622396
 H         -5.6533548102        0.5493210514        2.5153494118
 H         -6.3687611044       -0.6437196417        1.4494396956
 O         -4.0322958720       -1.1382442197        1.4044354334
 C         -2.7982852653       -1.6726617250        1.0891921703
 O         -2.5438701462       -2.7483829638        1.6661474939
 O         -1.6839003696        0.9056204412       -1.1923352721
 C         -0.6323782076       -1.6147254672       -0.1182956041
 C          0.4421572787       -0.8039971629        0.5643142081
 C          0.7997394401       -1.1020579690        1.8756137112
 C          1.7664725178       -0.3610763577        2.5305563665
 C          2.3955367188        0.6929848432        1.8916221012
 C          2.0380943578        1.0027755573        0.5862345965
 C          1.0761256290        0.2509703510       -0.0742533591
 H          0.7937886422        0.5127260517       -1.0815324268
 N          2.6850193559        2.0668110839       -0.0706548346
 S          4.3587836258        2.0095408795       -0.0874224035
 O          4.8721970256        2.5256163292        1.1570836904
 O          4.7610979617        2.7226104303       -1.2794045020
 C          4.7422195535        0.2720612917       -0.2262495788
 C          4.3407770181       -0.3913381167       -1.3689956857
 C          4.5700638593       -1.7535117062       -1.4686187922
 C          5.1906767076       -2.4266940435       -0.4273526159
 C          5.5914212360       -1.7458449137        0.7113690908
 C          5.3631862953       -0.3830567414        0.8171170829
 H          5.6540307466        0.1840001027        1.6861837141
 H          6.0750414749       -2.2720274896        1.5185296541
 H          5.3624015701       -3.4886677718       -0.5056123552
 H          4.2591718898       -2.2861395895       -2.3529898039
 H          3.8646470138        0.1627402980       -2.1619440138
 H          2.3177070462        2.2499450323       -0.9932188159
 H          3.1516967386        1.2835325775        2.3834419377
 H          2.0341090400       -0.6059141262        3.5471088492
 H          0.3004558066       -1.9181806444        2.3789061880
 H         -0.6540187384       -2.6057596770        0.3536239193
 C         -0.3933172149       -1.7886016063       -1.6048303743
 C          0.7741233918       -2.6100539460       -2.0610540411
 C         -0.6212627010       -3.1285604239       -2.2336331435
 H         -1.0397725409       -3.1656622990       -3.2284208563
 H         -0.9517206782       -3.9326863818       -1.5924350067
 H          1.3142266259       -2.2921130619       -2.9395998297
 H          1.3935637609       -3.0585611604       -1.2992302444
 H         -0.6587152772       -0.9178740918       -2.1903646985
