  62
        -98.94378792
 C         -1.2890423998       -1.4267157598        0.5991420108
 C         -2.0909200398       -1.0349005107       -0.5015620695
 C         -3.1486088001       -0.0556346007       -0.2085974102
 C         -3.2834559402        0.4248725200        1.0397361095
 C         -4.2806372105        1.4651375201        1.4583154388
 C         -3.6866161608        2.8770291402        1.3593252579
 C         -2.9979349307        3.1728325595        0.0262783978
 H         -2.6625478210        4.2122587696        0.0605235671
 H         -2.0957854506        2.5607457796       -0.0595815418
 C         -3.8846689506        2.9636839785       -1.2094137722
 H         -4.9351147906        2.9648211885       -0.9148297022
 H         -3.7364872708        3.8062277481       -1.8883155627
 C         -3.5814509303        1.6932702180       -2.0060847013
 H         -2.5078299903        1.6374952681       -2.2065103912
 H         -4.0920641203        1.7670322773       -2.9701813014
 C         -4.0196361901        0.3757938784       -1.3540602805
 H         -5.0638775401        0.4470791984       -1.0430659006
 H         -3.9364579299       -0.4115558821       -2.1089841900
 H         -4.4880768109        3.6000987001        1.5238537374
 H         -2.9476340608        3.0006045508        2.1546635779
 H         -5.1654068804        1.3870446995        0.8294589288
 H         -4.5638383505        1.2732659207        2.4948959889
 O         -2.4815411902        0.0442834409        2.0666724598
 C         -1.4448600700       -0.8518554591        1.8621782504
 O         -0.7372646400       -1.0526896183        2.8707728106
 H          0.5860173299        0.1254231501       -0.0857886701
 C          1.0200915301       -0.5440742802       -0.8122550797
 C          0.7370698304       -1.9013520602       -0.7385765888
 C          1.2698277906       -2.7398277008       -1.7083277282
 C          2.0552907505       -2.2194627512       -2.7233921385
 C          2.3411105303       -0.8677383012       -2.7861557394
 C          1.8091198100       -0.0201101907       -1.8207862299
 N          2.0557955497        1.3608585293       -1.8391141708
 S          2.1635691495        2.1955296803       -0.3959964713
 O          0.8553435794        2.3927181004        0.1766601185
 O          2.8885566893        3.4014065402       -0.7366180720
 C          3.1741911396        1.1634448511        0.6521783794
 C          2.6416526397        0.5400653517        1.7616446798
 C          3.4530627498       -0.2936465876        2.5158492103
 C          4.7760053399       -0.4874279676        2.1516117405
 C          5.3003716398        0.1546148118        1.0396344701
 C          4.4933753197        0.9853911512        0.2807809996
 H          4.8670345896        1.5093967207       -0.5838346407
 H          6.3313058699        0.0068598119        0.7615686203
 H          5.4006578400       -1.1405833571        2.7401661010
 H          3.0365187299       -0.7901029672        3.3780749706
 H          1.6072150997        0.7015171317        2.0243393996
 H          2.7344735097        1.6720861190       -2.5175512010
 H          2.9537805702       -0.4677473416       -3.5792228796
 H          2.4553497107       -2.8799142316       -3.4776346981
 H          1.0549308008       -3.7953947608       -1.6849028476
 C         -0.1066816296       -2.3647396097        0.4253575614
 H          0.4976359603       -2.2198192490        1.3373757714
 C         -0.4604212593       -3.8440100498        0.3772045424
 C         -1.7746844592       -4.3470789997        0.8938140526
 C         -1.4787321091       -4.3949717906       -0.5735902774
 H         -1.2893248789       -5.3580214409       -1.0250302467
 H         -1.9792620992       -3.6946654111       -1.2226128778
 H         -1.7860153991       -5.2720343694        1.4510230432
 H         -2.4871249194       -3.6152787197        1.2473099521
 H          0.4006415108       -4.4724821295        0.5824999728
 O         -1.9401555897       -1.4681363114       -1.6728453492
