  62
        -98.94344411
 C         -1.9390205182       -0.7769493702        0.5477013013
 C         -2.1960401934       -0.1633715412       -0.7015664766
 C         -2.5465556207        1.2606707829       -0.6497963524
 C         -2.5469329590        1.9073091288        0.5298452895
 C         -2.8493088294        3.3665984603        0.7392058027
 C         -4.3472497943        3.6859537149        0.8425844538
 C         -5.1234296750        3.5991495067       -0.4721663690
 H         -6.1003365798        4.0539858569       -0.2969614693
 H         -4.6166347216        4.1961057489       -1.2308577419
 C         -5.3305851670        2.1698725459       -0.9923039589
 H         -6.3698623148        2.0427291933       -1.3033140540
 H         -5.1483347921        1.4581479657       -0.1838028515
 C         -4.4515862553        1.7961089879       -2.1858806563
 H         -4.6538308261        0.7545298565       -2.4474295651
 H         -4.7155323692        2.4173105041       -3.0444846183
 C         -2.9451115800        1.9340364090       -1.9283810927
 H         -2.4087655852        1.4394650708       -2.7419673797
 H         -2.6594396642        2.9856095039       -1.9097456415
 H         -4.7964628889        3.0134052116        1.5769770264
 H         -4.4364474170        4.7048162798        1.2264254473
 H         -2.4038016529        3.9505113667       -0.0667485930
 H         -2.3684941944        3.6501960293        1.6780927767
 O         -2.2460773402        1.2910563067        1.7052746553
 C         -1.9479824917       -0.0612614363        1.7432293549
 O         -1.7134392287       -0.5044758972        2.8882390342
 O         -2.1370024486       -0.7709393522       -1.8026328645
 C         -1.5717594266       -2.2470714242        0.6035522858
 C         -0.3222939309       -2.5093800826       -0.2040842131
 C         -0.1360371453       -3.6635600413       -0.9545203071
 C          1.0437786858       -3.8621025487       -1.6507275799
 C          2.0583420473       -2.9244561806       -1.6108562508
 C          1.8797443912       -1.7626515004       -0.8662579538
 C          0.7012309401       -1.5711917035       -0.1648839127
 H          0.5772134687       -0.6704515629        0.4199951334
 N          2.8729987193       -0.7696815571       -0.8452382126
 S          2.9725147312        0.2912616669        0.4584383385
 O          2.9660379424       -0.4424545086        1.7051682542
 O          1.9687147623        1.3160015001        0.3074650828
 C          4.5896686697        0.9842732441        0.1674477472
 C          5.6782273517        0.4753194431        0.8503219623
 C          6.9357349916        0.9990501816        0.5938696754
 C          7.0830815410        2.0153367662       -0.3380406916
 C          5.9811266613        2.5167175042       -1.0150951605
 C          4.7209708403        1.9980767967       -0.7627717345
 H          3.8342203977        2.3601679409       -1.2567056262
 H          6.0987477838        3.3087266670       -1.7369327658
 H          8.0624356052        2.4212631833       -0.5360791129
 H          7.7932918435        0.6134769220        1.1211732792
 H          5.5129094075       -0.3082802591        1.5721522509
 H          3.7807431010       -1.1049563729       -1.1365555479
 H          2.9761522134       -3.0801983928       -2.1566635563
 H          1.1756681698       -4.7629032671       -2.2306642809
 H         -0.9154888216       -4.4067142219       -0.9950118956
 H         -1.3398443484       -2.4628355855        1.6582163805
 C         -2.7510501408       -3.0983572875        0.1770340449
 C         -2.9745769380       -4.4489938056        0.7860163641
 C         -3.8758724010       -3.3070508569        1.1445248761
 H         -4.8877403042       -3.3066379961        0.7681306167
 H         -3.7734420643       -2.8596101736        2.1230165630
 H         -3.3724754232       -5.2360262211        0.1633031321
 H         -2.2679591185       -4.7858144375        1.5296489205
 H         -3.0077100393       -2.9546930820       -0.8662060626
