  62
        -98.94393315
 C         -1.8296545009       -1.1246859704        0.2178754265
 C         -2.1772932178       -0.1069858463       -0.7025074652
 C         -3.6099705721        0.0088828516       -1.0141124008
 C         -4.4808051348       -0.8460829741       -0.4472350481
 C         -5.9694743012       -0.8036256769       -0.6329929246
 C         -6.6375792444        0.0635746173        0.4432603835
 C         -5.9856066164        1.4344266320        0.6242958414
 H         -6.5577103435        1.9688334765        1.3858110314
 H         -4.9747904026        1.3007423874        1.0165252097
 C         -5.9218919105        2.2809754035       -0.6546114164
 H         -6.2281053942        3.3014481715       -0.4149123011
 H         -6.6285903441        1.8952188104       -1.3902564467
 C         -4.5317493745        2.3710960196       -1.2873373648
 H         -3.8011294311        2.6686963201       -0.5304994139
 H         -4.5536672270        3.1579933293       -2.0461796192
 C         -4.0236859782        1.0937502575       -1.9680684047
 H         -4.7750252768        0.7264398868       -2.6702382404
 H         -3.1233576936        1.3546605274       -2.5325513538
 H         -6.5870262893       -0.4678189704        1.3963829739
 H         -7.6892353793        0.1908288279        0.1804277274
 H         -6.3547147336       -1.8218028532       -0.5573262489
 H         -6.1960310594       -0.4122024908       -1.6227086312
 O         -4.1040117101       -1.8277422118        0.4113598680
 C         -2.7765307025       -1.9835206404        0.7755950052
 O         -2.5702180949       -2.9044767638        1.5914694649
 O         -1.3387781684        0.6672196302       -1.2343512308
 C         -0.3788217783       -1.3187235064        0.6195326392
 C          0.1987533280       -0.0286700707        1.1478026680
 C         -0.5301167817        0.7041609524        2.0812661166
 C         -0.0379685807        1.8904098051        2.5883791337
 C          1.1948321057        2.3689305782        2.1809453238
 C          1.9400501636        1.6367459873        1.2647708376
 C          1.4448716024        0.4406006001        0.7618466043
 H          2.0327049854       -0.1047785273        0.0429988993
 N          3.2151715842        2.0719701956        0.8858704511
 S          3.8987702473        1.7026956462       -0.5906968350
 O          5.0133658125        2.6217010416       -0.6973704319
 O          2.9447802968        1.7434441556       -1.6731361424
 C          4.5385748901        0.0524860967       -0.3909539847
 C          4.5387725318       -0.7945282393       -1.4813743477
 C          5.0817747958       -2.0630866706       -1.3474483098
 C          5.6115505676       -2.4613566586       -0.1299024317
 C          5.6042058184       -1.5985214493        0.9553436086
 C          5.0683064083       -0.3270916816        0.8264067862
 H          5.0472385436        0.3672852495        1.6494260227
 H          6.0151710180       -1.9124834497        1.9012695522
 H          6.0299652993       -3.4500792346       -0.0273242501
 H          5.0882715944       -2.7344393497       -2.1916838119
 H          4.1036294706       -0.4485067707       -2.4058347983
 H          3.4785052311        2.9892908011        1.2128796224
 H          1.5770013449        3.3008956409        2.5686030520
 H         -0.6203040789        2.4524561877        3.3032101802
 H         -1.4968076791        0.3335075104        2.3953484195
 H         -0.3880880458       -2.0504649613        1.4411508939
 C          0.4076303260       -1.9014576396       -0.5366368035
 C          1.5702941508       -2.8096165666       -0.2738926460
 C          0.2914259698       -3.3680581357       -0.8197618328
 H          0.2655035231       -3.6937505732       -1.8487723322
 H         -0.3395736105       -3.9481075438       -0.1619757214
 H          2.4271541044       -2.7526453367       -0.9279192802
 H          1.8159432605       -3.0201248365        0.7558860396
 H          0.4615561136       -1.2282864960       -1.3856840315
