  62
        -98.93448082
 C         -2.3287218692       -0.8137704421       -0.1504166863
 C         -3.5593140078       -1.1792572309        0.4418233399
 C         -4.7655216031       -0.5254743511       -0.0943806398
 C         -4.6354465508        0.3553409151       -1.1017892791
 C         -5.7207803396        1.1673536626       -1.7529939193
 C         -5.8356180308        2.5504134412       -1.0896508867
 C         -6.7552889049        2.6055099739        0.1296307818
 H         -6.6427575766        3.5959411928        0.5765422624
 H         -7.7923284948        2.5100915374       -0.1987989698
 C         -6.4834812498        1.5483347477        1.2030839765
 H         -5.4076133933        1.4528350959        1.3608943659
 H         -6.9170286499        1.9035270816        2.1399940224
 C         -7.0862964963        0.1763918829        0.8659433453
 H         -7.7799223643        0.2874158686        0.0327697514
 H         -7.6756468422       -0.1775789404        1.7143097578
 C         -6.0668860813       -0.9270157477        0.5451694531
 H         -5.7744394107       -1.4327655243        1.4707817276
 H         -6.5459059633       -1.6838485168       -0.0848213321
 H         -4.8290520419        2.8700700316       -0.8076064766
 H         -6.2095149431        3.2630054045       -1.8276308366
 H         -5.4227666586        1.3049016622       -2.7944066643
 H         -6.6681608856        0.6374462237       -1.7260905544
 O         -3.4293447287        0.6748974657       -1.6476457568
 C         -2.2501444844        0.1141040586       -1.1882831119
 O         -1.2278287631        0.5145393002       -1.7764236304
 H          1.5546578468       -0.8316296468       -0.3718082328
 C          1.1642511180       -0.1961192431        0.4047831020
 C         -0.1228872081       -0.3725623046        0.8844365761
 C         -0.5840469105        0.4776591269        1.8874783404
 C          0.2222482558        1.4789324213        2.3912036809
 C          1.5096581293        1.6493451186        1.9123138019
 C          1.9778355800        0.8103124284        0.9085991372
 N          3.2663668678        0.9840507032        0.3801667780
 S          4.1280583651       -0.3618767462       -0.1567581148
 O          3.6968861723       -0.7032374779       -1.4888101738
 O          4.0624852795       -1.4192070230        0.8273782260
 C          5.7731809108        0.3243954108       -0.2183347504
 C          6.1043170927        1.1451950208       -1.2802628875
 C          7.3705165416        1.7064310596       -1.3234964594
 C          8.2796661160        1.4393211688       -0.3103043089
 C          7.9339164064        0.6119154493        0.7473477290
 C          6.6682915737        0.0485830952        0.7977495905
 H          6.3570653985       -0.6057698364        1.5960368855
 H          8.6440122220        0.4035169696        1.5313001240
 H          9.2648534183        1.8766941303       -0.3473660916
 H          7.6436552758        2.3480676065       -2.1456566980
 H          5.3680740780        1.3163668111       -2.0484754451
 H          3.8418665273        1.6021041472        0.9353692447
 H          2.1417149925        2.4312337949        2.3051211942
 H         -0.1501917555        2.1294053199        3.1683861324
 H         -1.5886614502        0.3396412613        2.2642556655
 C         -1.0487359825       -1.4450564873        0.3666044990
 H         -1.3541925410       -2.0719302763        1.2178223922
 C         -0.4231890657       -2.3323466727       -0.6877034354
 C          0.5019883206       -3.4384808166       -0.2802767075
 C         -0.8652334878       -3.7589668964       -0.8033487665
 H         -0.9528822436       -4.1928425061       -1.7880669679
 H         -1.6120086842       -4.1052179971       -0.1038151206
 H          1.3604730697       -3.6456998882       -0.9019490830
 H          0.6892093910       -3.5680641099        0.7752293355
 H         -0.2043823417       -1.8010901528       -1.6079673806
 O         -3.6469133548       -2.0088077783        1.3877644445
