  62
        -98.93909348
 C         -0.7929245593       -1.2331083605        0.2256489392
 C         -1.6020935095       -0.6015340004        1.2004555690
 C         -2.5577456396        0.4137229894        0.7211393587
 C         -2.5901678195        0.7170701291       -0.5895845714
 C         -3.4816551596        1.6527229888       -1.3805278717
 C         -4.6885115897        2.3197333988       -0.7262060120
 C         -5.8460034996        1.3716653687       -0.4105363919
 H         -6.5932778197        1.9202012187        0.1667685479
 H         -6.3106116495        1.0692204884       -1.3524013418
 C         -5.4717169895        0.0983346789        0.3438831485
 H         -6.3788157194       -0.5009702212        0.4604410885
 H         -4.7720605194       -0.4905790611       -0.2527067213
 C         -4.8776475797        0.3145424393        1.7338518585
 H         -4.7861925596       -0.6647476105        2.2122438987
 H         -5.5598140198        0.9170326394        2.3370732883
 C         -3.4886986198        0.9732752795        1.7584918584
 H         -3.0305039898        0.7569136698        2.7283981785
 H         -3.5643366199        2.0542000695        1.6690324382
 H         -5.0595355898        3.0625522585       -1.4375174322
 H         -4.3831680799        2.8631541390        0.1631850479
 H         -2.8246381996        2.4347636288       -1.7721248418
 H         -3.8205753994        1.0767884385       -2.2477902116
 O         -1.7023099194        0.1714038290       -1.4697872212
 C         -0.7842006493       -0.8005234808       -1.1000254509
 O         -0.0476839791       -1.1733694309       -2.0296238807
 O         -1.5419839396       -0.8826124400        2.4281687391
 C          0.1081976608       -2.3658723902        0.6807417396
 C          1.4974811008       -2.2023301702        0.1228139197
 C          2.0703202510       -3.0801303603       -0.7881608301
 C          3.3500756210       -2.8561632003       -1.2633118300
 C          4.0795765709       -1.7579713601       -0.8473551602
 C          3.5156419307       -0.8754483499        0.0673640195
 C          2.2374697306       -1.1062694100        0.5490358295
 H          1.8094718805       -0.4234313299        1.2692685893
 N          4.2346750005        0.2406289503        0.5177024593
 S          3.4527575602        1.6160766803        1.0276714389
 O          4.4561826801        2.6548946004        0.9193512388
 O          2.9043891601        1.4215365905        2.3471467189
 C          2.1438220403        1.9513248298       -0.1375410213
 C          2.3805633504        1.8072385895       -1.4895453412
 C          1.3823782205        2.1535836392       -2.3847302414
 C          0.1780885703        2.6541731991       -1.9174091316
 C         -0.0455466698        2.7930886894       -0.5569038417
 C          0.9428715802        2.4308955498        0.3430280585
 H          0.8016662201        2.5067629200        1.4100184685
 H         -0.9843425899        3.1758044194       -0.1886242619
 H         -0.5908206496        2.9308272389       -2.6215900718
 H          1.5451882506        2.0312888090       -3.4431826614
 H          3.3287555205        1.4266741696       -1.8324277211
 H          5.0938184805        0.4374079803        0.0270608593
 H          5.0755472009       -1.5809896800       -1.2233917702
 H          3.7825452812       -3.5417648104       -1.9759958998
 H          1.5058031112       -3.9258210705       -1.1441381199
 H          0.1707025007       -2.2443428600        1.7754006496
 C         -0.4785269690       -3.7481025904        0.4287923599
 C         -1.9600968290       -3.9724924706        0.4571521998
 C         -1.2088919488       -4.0939508908       -0.8329295101
 H         -1.0692614187       -5.0797761809       -1.2518509499
 H         -1.3255023389       -3.3177422210       -1.5731451003
 H         -2.3345689389       -4.8710987705        0.9241035000
 H         -2.5938605791       -3.1095878006        0.6021406195
 H          0.1328704411       -4.5307583302        0.8677282001
