  62
        -98.94140681
 C         -1.2400612765       -1.1143126675       -0.0734091643
 C         -1.6597005911       -0.0469075912        0.7533746771
 C         -2.7242699443        0.8173281577        0.2199927469
 C         -3.1956839236        0.5917033032       -1.0180576214
 C         -4.2371292676        1.3720266723       -1.7809363182
 C         -5.4917544589        1.8175542726       -1.0166432173
 C         -5.9511513746        0.8610430125        0.0936002908
 H         -7.0134493116        0.6483792598       -0.0395370750
 H         -5.4161146815       -0.0868177627        0.0149507150
 C         -5.7608061543        1.4405359768        1.4974146851
 H         -6.4186628321        0.9087597418        2.1889391383
 H         -6.0727361208        2.4871687771        1.4888563620
 C         -4.3428256705        1.3463829395        2.0593865089
 H         -4.3174724668        1.8970484199        3.0027352127
 H         -4.1044846090        0.3043255745        2.2887668864
 C         -3.2312446587        1.8864058233        1.1445024802
 H         -3.5600032114        2.7673380733        0.5980696355
 H         -2.3820144720        2.1691467837        1.7730883828
 H         -6.2874824903        1.9273141831       -1.7554248901
 H         -5.3246106308        2.8048647769       -0.5881094931
 H         -3.7492652255        2.2503939254       -2.2145222789
 H         -4.5253805523        0.7228085842       -2.6113838941
 O         -2.7282600087       -0.4210122750       -1.8020859518
 C         -1.7440934134       -1.2917023730       -1.3602171021
 O         -1.4160171903       -2.1598827577       -2.1914655356
 H          0.8283903730        0.2076586724       -0.6113501415
 C          1.4591908216       -0.6348038629       -0.8489352133
 C          1.0903644854       -1.9064185941       -0.4328402708
 C          1.9020863564       -2.9777235045       -0.7846646860
 C          3.0421407298       -2.7710500206       -1.5423297332
 C          3.4141316928       -1.4992645385       -1.9390991768
 C          2.6115517907       -0.4203742759       -1.5866882357
 N          2.9466238883        0.8922021315       -1.9525873311
 S          2.6283159432        2.1373757083       -0.8810724737
 O          1.2258258256        2.4712697885       -0.8976947821
 O          3.5300116587        3.1944846381       -1.2888206874
 C          3.1261723360        1.5028103415        0.7106983087
 C          2.1939922786        1.1867218064        1.6770578116
 C          2.6318591448        0.6426063004        2.8749613146
 C          3.9838125654        0.4254469072        3.0863773230
 C          4.9098212838        0.7577289439        2.1086412420
 C          4.4788451217        1.2984894378        0.9091806815
 H          5.1678922111        1.5797116313        0.1294137339
 H          5.9619245061        0.5935125275        2.2766203738
 H          4.3165486790       -0.0027342822        4.0187312952
 H          1.9032282546        0.3870606874        3.6279530824
 H          1.1440722582        1.3542160895        1.4930344594
 H          3.8460750346        0.9961765054       -2.3984351539
 H          4.3078774711       -1.3407655881       -2.5225862848
 H          3.6571556986       -3.6134794888       -1.8197721315
 H          1.6378726657       -3.9749753035       -0.4735033889
 C         -0.1476994011       -2.0433874062        0.4197988376
 H          0.1057289191       -1.6830490211        1.4291332454
 C         -0.6564109191       -3.4659637528        0.5246045247
 C         -0.1142055733       -4.3892983033        1.5734858613
 C         -1.5039948158       -3.8446676296        1.7011439013
 H         -2.3394184538       -4.5098982003        1.5424893806
 H         -1.6895061725       -3.0819141741        2.4434502283
 H          0.0033428131       -5.4342169853        1.3289371325
 H          0.6427214570       -4.0018310826        2.2383505995
 H         -0.9242580307       -3.8825662602       -0.4397643551
 O         -1.1571444500        0.1821080490        1.8870463242
