  62
        -98.94364205
 C          2.6348952761        0.1430212443       -0.2029009312
 C          2.1629409225        0.9243213997        0.8812367960
 C          1.7379163972        2.2944865649        0.5488050140
 C          1.7875828494        2.7179043263       -0.7258287894
 C          1.3486133992        4.0714959330       -1.2040228414
 C         -0.1227734066        4.0684826213       -1.6382396361
 C         -1.0747108117        3.4504876139       -0.6131991930
 H         -2.0883680812        3.5611511990       -1.0064414063
 H         -0.8829670766        2.3768303677       -0.5400683650
 C         -1.0002612800        4.0777292888        0.7856043512
 H         -0.5322154760        5.0618736606        0.7267387946
 H         -2.0175009443        4.2212716787        1.1562157373
 C         -0.2683544338        3.2266569861        1.8253904374
 H         -0.6634949504        2.2074129438        1.8067934647
 H         -0.4817351472        3.6414847206        2.8148659434
 C          1.2575233141        3.1595808435        1.6799918229
 H          1.6564651444        2.7067698402        2.5926372191
 H          1.6644311662        4.1697609968        1.5902167649
 H         -0.2088732716        3.4988277363       -2.5664210518
 H         -0.4226506007        5.0990940866       -1.8395376967
 H          1.5010805229        4.7969120283       -0.4069764628
 H          1.9686357339        4.3479294114       -2.0589377090
 O          2.2319792918        1.9371363357       -1.7440241550
 C          2.6430597044        0.6380371422       -1.5097308819
 O          3.0140795289        0.0285948919       -2.5351886712
 O          2.0991432788        0.5281320432        2.0757147039
 C          3.0700594460       -1.3083065790       -0.0778978995
 C          1.8905289148       -2.2315259870       -0.2866078812
 C          2.0309352505       -3.4242259312       -0.9876859160
 C          0.9381376945       -4.2418318358       -1.2121691809
 C         -0.3204430433       -3.8713368060       -0.7730438807
 C         -0.4691382852       -2.6843950463       -0.0658382913
 C          0.6379100014       -1.8923117385        0.1990943067
 H          0.5009007439       -0.9830912635        0.7637942346
 N         -1.7268469592       -2.2514151416        0.3860540615
 S         -2.0241133079       -0.5865701391        0.2734000233
 O         -1.4159576648       -0.0591757804       -0.9266873797
 O         -1.6534666775        0.0334635860        1.5191717285
 C         -3.8011855343       -0.5807630906        0.1213183407
 C         -4.3745500629       -0.4643496245       -1.1304420230
 C         -5.7560802547       -0.4960337889       -1.2405301521
 C         -6.5357098588       -0.6469599357       -0.1036265390
 C         -5.9455867240       -0.7615120798        1.1464951212
 C         -4.5651686679       -0.7285445553        1.2638038052
 H         -4.0610383856       -0.8030356140        2.2132538243
 H         -6.5548327174       -0.8751505343        2.0285093868
 H         -7.6102552816       -0.6721987686       -0.1921932748
 H         -6.2171475435       -0.4028622544       -2.2105732855
 H         -3.7269888657       -0.3412782377       -1.9839349398
 H         -2.4908062749       -2.7942977933        0.0063016018
 H         -1.1803850658       -4.4905318147       -0.9787435703
 H          1.0615887935       -5.1642268141       -1.7589372916
 H          3.0003414316       -3.6977211099       -1.3763468938
 H          3.7721810172       -1.4840339506       -0.9061641241
 C          3.7752669514       -1.6419741249        1.2220390896
 C          4.7859956976       -2.7475039933        1.2491723430
 C          5.2307938483       -1.3217954393        1.3724366915
 H          5.5806666151       -0.9645317049        2.3289165117
 H          5.7296564005       -0.8679963370        0.5281830147
 H          4.8314869660       -3.3777899530        2.1238001141
 H          4.9968627047       -3.2617050179        0.3240383305
 H          3.1463916346       -1.5110693742        2.0928205739
