  62
        -98.94021573
 C          2.4423009062        0.9047264131        0.0612543624
 C          2.6658022144       -0.4840472621        0.2195960229
 C          4.0432432152       -0.8741529439        0.5552747178
 C          4.9800740605        0.0792477787        0.7107663209
 C          6.4295800891       -0.1808912086        1.0001647841
 C          7.2426837460       -0.2957634920       -0.2968454650
 C          6.6279368844       -1.2410959416       -1.3289342557
 H          5.6803368208       -0.8225811262       -1.6759282478
 H          7.3012893892       -1.2667776546       -2.1884429725
 C          6.3934010929       -2.6702472061       -0.8200220103
 H          6.7353733116       -3.3737167890       -1.5820602023
 H          6.9901357708       -2.8474377083        0.0754020867
 C          4.9299279903       -3.0073315624       -0.5280778586
 H          4.3135005743       -2.7434455326       -1.3912583445
 H          4.8511152712       -4.0888395862       -0.3888951181
 C          4.3265775060       -2.3413912557        0.7151567431
 H          3.3579404977       -2.8120088970        0.9079499129
 H          4.9726308143       -2.5182251450        1.5774060612
 H          8.2490886046       -0.6344106387       -0.0443459303
 H          7.3202747193        0.6971022817       -0.7457803042
 H          6.8172025514        0.6521441850        1.5888749886
 H          6.5198449849       -1.0969413317        1.5805201619
 O          4.7195022480        1.4051276148        0.5750323521
 C          3.4518322429        1.8500987313        0.2393885027
 O          3.3500599085        3.0899419781        0.1393451728
 H         -1.4378788159        0.2853545510       -0.7017520226
 C         -1.1844651833        0.4188339248        0.3364295133
 C          0.0382910064        0.9561362895        0.7043617611
 C          0.3159325312        1.1123137044        2.0603964824
 C         -0.6020812712        0.7290576446        3.0182726231
 C         -1.8256526589        0.1998185876        2.6464136569
 C         -2.1143101813        0.0429202914        1.2966909595
 N         -3.3385191556       -0.5077372184        0.8844488088
 S         -4.0512664921        0.0866002477       -0.5259137107
 O         -3.4884988898       -0.5976460538       -1.6625374244
 O         -3.9778542558        1.5301633444       -0.5474362131
 C         -5.7374815481       -0.4423715150       -0.2825867941
 C         -6.0726072591       -1.7503523105       -0.5786668736
 C         -7.3746779022       -2.1731320024       -0.3637482328
 C         -8.3148040817       -1.2866175025        0.1406721461
 C         -7.9643989372        0.0233892548        0.4308140718
 C         -6.6634246911        0.4524893235        0.2195704275
 H         -6.3476150980        1.4633059374        0.4221084665
 H         -8.6983797160        0.7110162104        0.8190884736
 H         -9.3277343776       -1.6182105058        0.3057817379
 H         -7.6516284833       -3.1899383433       -0.5910999373
 H         -5.3108839344       -2.3999945096       -0.9774374880
 H         -4.0075347927       -0.5887876131        1.6377978690
 H         -2.5455701024       -0.0952398576        3.3946695529
 H         -0.3679509395        0.8520171894        4.0651880002
 H          1.2676117257        1.5370055399        2.3516402180
 C          1.0604377606        1.4089231691       -0.3101843614
 H          1.1133173069        2.5075121995       -0.2663965474
 C          0.7208237333        0.9973103480       -1.7277371031
 C         -0.2200650585        1.8240639108       -2.5498055899
 C          1.2435291117        1.8113907574       -2.8713462977
 H          1.5717689161        1.2985196270       -3.7629305684
 H          1.8282724253        2.6870384750       -2.6287410327
 H         -0.9037551941        1.3167916291       -3.2146503302
 H         -0.6361373658        2.7100644517       -2.0934681281
 H          0.6907799089       -0.0798316246       -1.8519262104
 O          1.7647679236       -1.3534623471        0.0890979263
