  62
        -98.93916457
 C          1.5648129544        1.3703200226       -0.2885553448
 C          1.3575879854        0.0194211387       -0.6474842547
 C          2.1731345154       -0.9873588480        0.0584374841
 C          3.0287248944       -0.5898295359        1.0142268895
 C          3.9599163043       -1.4361735569        1.8387140663
 C          5.3432296558       -1.5465222417        1.1746714160
 C          5.4893493056       -2.6924792473        0.1746038018
 H          6.4651407413       -2.5835323346       -0.3041711313
 H          5.4926042417       -3.6414778362        0.7147467047
 C          4.4118519916       -2.7491615132       -0.9104083772
 H          4.2197634485       -1.7431974491       -1.2877077429
 H          4.8028628562       -3.3389421721       -1.7415453331
 C          3.0987366053       -3.3808702203       -0.4243671904
 H          3.2605525682       -3.8499121525        0.5456050677
 H          2.8049131039       -4.1798592834       -1.1084738588
 C          1.9112493615       -2.4144250290       -0.3420738273
 H          1.4372649894       -2.3452196486       -1.3265676721
 H          1.1545070667       -2.8224445828        0.3385054045
 H          5.5529094762       -0.5951703190        0.6790718184
 H          6.0949565491       -1.6806820143        1.9551671186
 H          4.0730085907       -0.9218033119        2.7956548353
 H          3.5290863910       -2.4160247643        2.0222328401
 O          3.1976002336        0.7231785682        1.3368269220
 C          2.4750855103        1.7192925356        0.7130767168
 O          2.7330639247        2.8703934116        1.1224142452
 H         -1.1590508760        0.7051334087       -0.3866592217
 C         -1.3808352974        1.6546455963        0.0688109679
 C         -0.5050762769        2.7187035068       -0.0971817613
 C         -0.8161495500        3.9398258259        0.4879082623
 C         -1.9695955494        4.0847519544        1.2383050681
 C         -2.8120378527        3.0080970283        1.4444826918
 C         -2.5090940805        1.7804141977        0.8638235097
 N         -3.3387539693        0.6689428136        1.0720582729
 S         -2.7102275288       -0.8597116584        1.3953329718
 O         -3.5113412877       -1.3577240233        2.4977256592
 O         -1.2855824522       -0.8165972063        1.6151132341
 C         -3.1345244398       -1.7958627205       -0.0597393770
 C         -4.4143130492       -2.3149188707       -0.1290586857
 C         -4.7902541066       -3.0347650518       -1.2504889228
 C         -3.8837394177       -3.2241568452       -2.2830843092
 C         -2.6047451074       -2.6978738004       -2.1982464987
 C         -2.2212246783       -1.9751190873       -1.0779248443
 H         -1.2305128026       -1.5541877425       -0.9982723366
 H         -1.8955780711       -2.8399202756       -2.9981640473
 H         -4.1739575855       -3.7854959593       -3.1573194902
 H         -5.7848069447       -3.4457231990       -1.3162349142
 H         -5.0805123432       -2.1567766619        0.7028219307
 H         -4.1229374171        0.8535373270        1.6812733500
 H         -3.6953897683        3.1110927251        2.0568967159
 H         -2.2028695038        5.0386079770        1.6869117458
 H         -0.1371890128        4.7716452241        0.3703537429
 C          0.7787335654        2.5347701716       -0.8730355484
 H          1.3987360213        3.4262987895       -0.7038862371
 C          0.5024813882        2.4210223766       -2.3587966039
 C          0.2520638761        3.6709029774       -3.1458043444
 C          1.5282171529        2.9081674957       -3.3354479303
 H          1.6709523856        2.3537422688       -4.2505909115
 H          2.4389177549        3.3296783594       -2.9345699928
 H          0.2994257111        4.6127028616       -2.6202884239
 H         -0.4854689018        3.6431670997       -3.9329030425
 H         -0.0577201719        1.5353899724       -2.6256479778
 O          0.5358299416       -0.3633090841       -1.5237434077
