  62
        -98.93756567
 C          2.2521483305        0.7457332900       -0.1527781090
 C          3.5785692506        1.1994910101       -0.3718160484
 C          4.6414140805        0.4632756192        0.3244053609
 C          4.3064908703       -0.5355045917        1.1606575498
 C          5.2857337401       -1.4112880026        1.8860478389
 C          5.6239664300       -2.6613983018        1.0614918775
 C          5.9968327001       -2.3614765902       -0.3905472221
 H          6.2420018201       -3.3135363897       -0.8662438531
 H          5.1212336302       -1.9620935495       -0.9079958717
 C          7.1727271003       -1.3885805902       -0.5566258510
 H          7.7366710202       -1.3279015113        0.3747365892
 H          7.8472225903       -1.7828311395       -1.3195239813
 C          6.7742537005        0.0204343903       -0.9999206494
 H          6.1325962706       -0.0411736686       -1.8827946296
 H          7.6822465206        0.5540305805       -1.2928725988
 C          6.0612992405        0.8754523993        0.0554320114
 H          6.6431699505        0.8812206482        0.9790838015
 H          6.0084583707        1.8994505397       -0.3256586274
 H          6.4475967999       -3.1852704324        1.5498459870
 H          4.7532513599       -3.3214527316        1.0616214268
 H          6.1905488402       -0.8429959230        2.0924601296
 H          4.8364377500       -1.7202928536        2.8312835585
 O          3.0206559602       -0.8932307018        1.4053984593
 C          1.9597185703       -0.2771709809        0.7503145999
 O          0.8442388003       -0.7265054511        1.0746276193
 H         -1.4482186994        0.4776431914       -0.9714870395
 C         -1.2730167594        1.1721880405       -0.1686093488
 C         -0.0223506693        1.7427185901        0.0075742819
 C          0.1713219707        2.6169211690        1.0738900229
 C         -0.8572470393        2.8955443681        1.9520519031
 C         -2.0992842694        2.3099017785        1.7834616524
 C         -2.3071992094        1.4439661697        0.7161002414
 N         -3.5832972495        0.8880068901        0.5053954307
 S         -3.7951833397       -0.6801738393       -0.0776586010
 O         -3.2911830199       -1.6531774404        0.8664269480
 O         -3.2957640296       -0.7639272779       -1.4258951510
 C         -5.5791421397       -0.7302389490       -0.1026940612
 C         -6.2393021295       -0.1227297578       -1.1538430406
 C         -7.6247868095       -0.1319409975       -1.1708839907
 C         -8.3242640897       -0.7445326586       -0.1416253514
 C         -7.6485667198       -1.3521713198        0.9056771780
 C         -6.2625393898       -1.3452939000        0.9287512281
 H         -5.6950000899       -1.8131098210        1.7172173476
 H         -8.1945987999       -1.8307501106        1.7026312074
 H         -9.4026819997       -0.7510476684       -0.1574923715
 H         -8.1535889994        0.3371061834       -1.9849183502
 H         -5.6532687894        0.3329852430       -1.9346972900
 H         -4.1897118695        1.0273342493        1.3033921109
 H         -2.9012694194        2.5198995678        2.4752256926
 H         -0.6908006193        3.5681799972        2.7802583339
 H          1.1471865808        3.0628747787        1.2128815835
 C          1.1397152507        1.4509353110       -0.9073474283
 H          1.5829737608        2.4143211713       -1.2119788572
 C          0.7237660307        0.7402909724       -2.1867969391
 C          1.6948918006       -0.0910564568       -2.9686809999
 C          0.5521602605       -0.7464307375       -2.2556494407
 H         -0.2699469895       -1.1403908367       -2.8359958312
 H          0.7552214204       -1.3152170285       -1.3608693113
 H          1.6671302607       -0.0352583657       -4.0464128899
 H          2.6880766706       -0.2160961274       -2.5622384600
 H          0.0240190308        1.3327776532       -2.7689044485
 O          3.8590220808        2.1769471508       -1.1152705373
