  62
        -98.93814034
 C         -2.5349699829       -0.2399376264        0.0233380412
 C         -2.3573389196        0.7846759232        0.9782551630
 C         -2.1320390213        2.1493785840        0.4657800649
 C         -2.1265925103        2.3463959590       -0.8656970675
 C         -1.9089734525        3.6304264643       -1.6226475886
 C         -0.4324026579        4.0488531503       -1.6735051478
 C          0.3069429633        3.9546613435       -0.3418157923
 H          0.2917955538        2.9189524494        0.0051212657
 H          1.3549864945        4.2053084095       -0.5281856564
 C         -0.2052969511        4.8849855156        0.7558048350
 H          0.4787203173        4.7876380945        1.6029463707
 H         -0.1517043005        5.9171111943        0.4015700998
 C         -1.6246527037        4.6189517799        1.2639720006
 H         -2.3711180641        5.0166002755        0.5815403379
 H         -1.7400061973        5.1661896667        2.2042058722
 C         -1.9250250521        3.1557750720        1.5715576484
 H         -1.1242454367        2.7487640813        2.2013220471
 H         -2.8302494890        3.1041022212        2.1889114167
 H          0.0812001704        3.3928751872       -2.3804603387
 H         -0.3773343603        5.0709477117       -2.0534121316
 H         -2.2542971625        3.4510031082       -2.6433901888
 H         -2.5201234717        4.4221960911       -1.1995719294
 O         -2.3113152448        1.3259378422       -1.7522060225
 C         -2.4773336105        0.0162168578       -1.3452313292
 O         -2.5757660707       -0.8061349140       -2.2770178592
 H         -0.1492691678       -0.8592405470        0.3767016150
 C         -0.2395860609       -1.8849267616        0.0507787670
 C         -1.4907709805       -2.4877283266        0.0364660650
 C         -1.5817274114       -3.8128447319       -0.3692206905
 C         -0.4455772629       -4.5033201045       -0.7569894489
 C          0.7952221533       -3.8943377530       -0.7524830185
 C          0.8960291278       -2.5646906415       -0.3535118727
 N          2.1306016612       -1.8971391480       -0.3936389934
 S          2.3547196385       -0.4507548427        0.4351424516
 O          2.0697446707       -0.6239757849        1.8436558835
 O          1.6369693352        0.5971327541       -0.2448696722
 C          4.1086987114       -0.2377120769        0.1969791182
 C          4.5556977291        0.3832417460       -0.9536318137
 C          5.9200961246        0.5205092753       -1.1545479134
 C          6.8101813247        0.0359067638       -0.2076349493
 C          6.3470456036       -0.5828844027        0.9438274191
 C          4.9837715358       -0.7232288337        1.1505013797
 H          4.5772967473       -1.1857327453        2.0355507207
 H          7.0409828643       -0.9551048096        1.6800745523
 H          7.8713711707        0.1442362090       -0.3666010786
 H          6.2830909513        1.0044236016       -2.0468455286
 H          3.8251529506        0.7504023794       -1.6558026720
 H          2.9309986021       -2.5103358485       -0.3371849410
 H          1.6766517408       -4.4334554520       -1.0633790249
 H         -0.5293510618       -5.5332932442       -1.0691034152
 H         -2.5410442688       -4.3038698284       -0.3838451750
 C         -2.6780615972       -1.6740262229        0.4949388235
 H         -2.6464584649       -1.6237010107        1.5949312973
 C         -4.0093272502       -2.2574662986        0.0702480331
 C         -4.6980861443       -3.2777022569        0.9254085186
 C         -5.2393245259       -1.8833485664        0.8401263427
 H         -6.1566638867       -1.7148616144        0.2965863649
 H         -5.1090311220       -1.2296315462        1.6905081629
 H         -5.2492502341       -4.0690658869        0.4402145924
 H         -4.2099534381       -3.5742036004        1.8416580154
 H         -4.0986208967       -2.3426874044       -1.0067558759
 O         -2.3816476429        0.5722359225        2.2236002285
