  62
        -98.94441848
 C          1.8374042143        0.0200366506       -0.4173468283
 C          2.9784284973       -0.3767017072       -1.1549559506
 C          4.2691792440        0.1164239361       -0.6573131471
 C          4.2940947306        0.9131236330        0.4269132295
 C          5.5419042475        1.4443494991        1.0698913923
 C          6.0464882426        0.4982722680        2.1684610070
 C          6.1380583716       -0.9634696040        1.7303434025
 H          6.5328596020       -1.5317655368        2.5753380712
 H          5.1315691290       -1.3394173210        1.5327687391
 C          7.0196298391       -1.2026111780        0.4965755194
 H          7.6753847378       -0.3456941109        0.3382880371
 H          7.6576931749       -2.0685682371        0.6850996324
 C          6.2445137815       -1.4922451754       -0.7901108280
 H          5.5189419729       -2.2891190543       -0.6087583293
 H          6.9526147212       -1.8581986037       -1.5383007223
 C          5.5045301180       -0.2982458201       -1.4062592915
 H          6.1909586512        0.5437874496       -1.5153417082
 H          5.1644633058       -0.5962842077       -2.4023758883
 H          7.0281508411        0.8440307630        2.4974800232
 H          5.3623702085        0.5590655423        3.0181515404
 H          6.3088272771        1.5762653131        0.3091144735
 H          5.3130912262        2.4142789295        1.5147294153
 O          3.1748659078        1.2919625554        1.0961528488
 C          1.9198314455        0.8504733044        0.7001159784
 O          0.9829445704        1.2637875161        1.4094972860
 H         -2.1253320301       -0.0639108427       -0.0150527225
 C         -1.7462556842        0.7388364735       -0.6245494004
 C         -0.4519880332        0.6920515242       -1.1191177040
 C          0.0013109084        1.7500475155       -1.9034716943
 C         -0.8093377577        2.8381618691       -2.1584493719
 C         -2.0913076826        2.8937201052       -1.6404535343
 C         -2.5609981000        1.8362733675       -0.8710554647
 N         -3.8742599223        1.8475160961       -0.3873115979
 S         -4.3468275074        1.0246630708        0.9846526878
 O         -5.6454663907        1.5862338154        1.2956476803
 O         -3.3658383649        1.0875660229        2.0418298909
 C         -4.5692104682       -0.6575198937        0.4432142348
 C         -5.0869836938       -0.9007374017       -0.8135779587
 C         -5.2989652848       -2.2123572490       -1.2073250070
 C         -5.0014655551       -3.2531013306       -0.3409546508
 C         -4.4882326050       -2.9922985965        0.9201370696
 C         -4.2683274121       -1.6825307021        1.3179773342
 H         -3.8577485012       -1.4345515007        2.2843230959
 H         -4.2578956250       -3.8021937946        1.5942907649
 H         -5.1682583740       -4.2730938067       -0.6491119449
 H         -5.6965007724       -2.4189301941       -2.1878800019
 H         -5.3083551115       -0.0694589789       -1.4615442880
 H         -4.3777300947        2.7129069279       -0.5109415108
 H         -2.7229732702        3.7482004005       -1.8294300006
 H         -0.4398193632        3.6547285652       -2.7604955620
 H          1.0062247269        1.7111549874       -2.3016087006
 C          0.4722540437       -0.4714322828       -0.8624270490
 H          0.6483532390       -0.9866040918       -1.8190031166
 C         -0.0767572361       -1.4732786882        0.1316206558
 C         -0.9827067368       -2.5736454246       -0.3319650219
 C          0.4227212581       -2.8852381106        0.0837606723
 H          0.5842834785       -3.4064540045        1.0154343440
 H          1.1435628642       -3.1279404614       -0.6833490738
 H         -1.7911368554       -2.8818443842        0.3134106230
 H         -1.2202902790       -2.6127156933       -1.3840840057
 H         -0.2551516603       -1.0359420746        1.1087535040
 O          2.9185001794       -1.1033857485       -2.1830765367
