  62
        -98.93220254
 C          2.5558186855        1.0362030180        0.5045612676
 C          2.7827122560       -0.2194383364        1.1202625455
 C          4.0131792681       -0.9457885406        0.7549658360
 C          4.8484692555       -0.3858574763       -0.1395626174
 C          6.1367806810       -0.9366579700       -0.6913951418
 C          5.9116587146       -2.0408204861       -1.7360234365
 C          4.8608885214       -3.0796752658       -1.3539421730
 H          4.7257612406       -3.7450823885       -2.2107765611
 H          3.9069945227       -2.5776343895       -1.1816907602
 C          5.2088704186       -3.9419793864       -0.1427823972
 H          6.1528174168       -4.4585074049       -0.3302822355
 H          4.4278186370       -4.7011070475       -0.0515507252
 C          5.3129003822       -3.2071244308        1.1957915971
 H          6.2605426605       -2.6828186558        1.2851056663
 H          5.3030324227       -3.9654655121        1.9841442495
 C          4.1572499901       -2.2562629762        1.4908639913
 H          4.1849929328       -1.9927617164        2.5550542472
 H          3.2092089367       -2.7882893089        1.3517892568
 H          6.8656372625       -2.5361377244       -1.9249492212
 H          5.5878672887       -1.5659527640       -2.6655033757
 H          6.7681686488       -1.2924690765        0.1173255202
 H          6.6517250358       -0.1025263688       -1.1731990449
 O          4.5845735878        0.8190407204       -0.7176828235
 C          3.4510282799        1.5573334757       -0.4291768329
 O          3.3825270064        2.6307251949       -1.0588816512
 O          1.9841459023       -0.7233493266        1.9567940866
 C          1.2881310987        1.7746129237        0.8997302108
 C          0.2085165116        1.5610201176       -0.1350287288
 C          0.2590839101        2.1736056681       -1.3826159457
 C         -0.7438274887        1.9536218939       -2.3093429308
 C         -1.8122003723        1.1242981398       -2.0162963238
 C         -1.8713838902        0.5060023257       -0.7747231680
 C         -0.8654709295        0.7322274968        0.1570039988
 H         -0.9054107106        0.2403105456        1.1198494339
 N         -2.9417576175       -0.3556836068       -0.4743302765
 S         -4.4884499125        0.1381476338       -0.9435365034
 O         -4.6727164873       -0.2004850018       -2.3325544069
 O         -4.6906850538        1.5276995755       -0.6002612541
 C         -5.5077719060       -0.9103969168        0.0738969507
 C         -5.7105269733       -2.2205299026       -0.3168221053
 C         -6.4861106718       -3.0445302790        0.4829770521
 C         -7.0419743676       -2.5482436450        1.6529914719
 C         -6.8301881248       -1.2309903539        2.0311924734
 C         -6.0544380003       -0.4015426392        1.2365861770
 H         -5.8703167054        0.6311039209        1.4864370293
 H         -7.2660051146       -0.8474399224        2.9396449518
 H         -7.6466418212       -3.1913947093        2.2727179712
 H         -6.6555215620       -4.0685721382        0.1917175208
 H         -5.2668408496       -2.5595978486       -1.2383109701
 H         -2.9298161709       -0.6562523976        0.4908402423
 H         -2.6017079589        0.9526301948       -2.7303222168
 H         -0.6939370116        2.4343960920       -3.2750868658
 H          1.0995180354        2.8045105177       -1.6265771983
 H          0.9570585072        1.2904993930        1.8285363900
 C          1.5083311688        3.2469761095        1.1823506551
 C          0.4856158970        3.9876622715        1.9888848087
 C          1.8294531479        3.6841453405        2.5787265557
 H          2.5294513957        4.4945928042        2.7153736669
 H          1.8920243949        2.9206711792        3.3405265280
 H          0.2587719302        5.0078804645        1.7202991039
 H         -0.3655969222        3.4297666353        2.3493876755
 H          1.9935415031        3.7772453381        0.3740231046
