  62
        -98.93756973
 C         -1.7338194450       -1.1983805142        0.4326094020
 C         -2.0024675662       -0.7478219639       -0.8850199914
 C         -2.6797397512        0.5536221913       -0.9812982821
 C         -3.0775246442        1.1935985157        0.1320506578
 C         -3.7458213243        2.5397697355        0.1882812720
 C         -2.7501775546        3.7083041068        0.1823910146
 C         -2.0490179695        3.9636940791       -1.1528440058
 H         -2.7955500858        4.0578798494       -1.9420621579
 H         -1.5415511042        4.9267443750       -1.0690453974
 C         -1.0159547961        2.8973625665       -1.5473651788
 H         -0.7448903893        2.3093689169       -0.6658318608
 H         -0.1028825656        3.3868219602       -1.8970338809
 C         -1.4782604655        1.9521973758       -2.6582359606
 H         -0.6878439514        1.2175451334       -2.8399648943
 H         -1.6259396408        2.5178033714       -3.5807703325
 C         -2.7692318424        1.1853141897       -2.3373264796
 H         -3.6297542177        1.8502299687       -2.3993853624
 H         -2.8863473461        0.3877879191       -3.0748389287
 H         -2.0013708952        3.5279607029        0.9567368019
 H         -3.3017185285        4.6108264405        0.4549017436
 H         -4.3094961242        2.5724776320        1.1229434442
 H         -4.4429335649        2.6449512149       -0.6427934112
 O         -2.9015006386        0.6721693273        1.3742125628
 C         -2.1719550410       -0.4929154569        1.5565275598
 O         -1.9811176352       -0.7934758298        2.7503554363
 O         -1.6675600240       -1.3602436770       -1.9307340058
 C         -0.8525166871       -2.4006224972        0.7077430940
 C          0.4378012243       -2.3304394359       -0.0802387531
 C          1.1924976594       -3.4615393073       -0.3728822487
 C          2.4116681890       -3.3559010993       -1.0205718240
 C          2.9046374774       -2.1230570789       -1.4104265033
 C          2.1493257804       -0.9918083145       -1.1461587562
 C          0.9457448889       -1.0975136481       -0.4680818390
 H          0.3849228238       -0.1970336816       -0.2520303527
 N          2.6437095949        0.2836453102       -1.5373191320
 S          3.5929634186        1.0065690012       -0.3618096089
 O          3.9271045948        2.3205482461       -0.8609345892
 O          4.6937567177        0.1254106835       -0.0705397773
 C          2.5168152799        1.1453292117        1.0535749775
 C          2.4265067744        0.0848279745        1.9333065790
 C          1.4910816878        0.1406599180        2.9540822238
 C          0.6632816653        1.2460652784        3.0749840618
 C          0.7719638153        2.3054817015        2.1871479666
 C          1.7006419749        2.2538005979        1.1599674963
 H          1.8111285991        3.0542758046        0.4452874388
 H          0.1297701592        3.1665245524        2.2885761732
 H         -0.0805348880        1.2692721432        3.8558081588
 H          1.3927874408       -0.6824487577        3.6433199291
 H          3.0851880142       -0.7589367528        1.8036649511
 H          1.9034853178        0.9272162273       -1.7839135187
 H          3.8538972129       -2.0198764801       -1.9096653614
 H          2.9836842766       -4.2471925364       -1.2282293892
 H          0.8264717451       -4.4352864387       -0.0908636764
 H         -0.5767256270       -2.2985225462        1.7712932664
 C         -1.5504312552       -3.7515509136        0.5755531424
 C         -3.0283521420       -3.8587637944        0.3501938796
 C         -2.0753804871       -4.2370573638       -0.7411513024
 H         -1.9630462330       -5.2822026945       -0.9894370310
 H         -1.9815596182       -3.5664655039       -1.5810059496
 H         -3.5673588910       -4.6398196296        0.8659201525
 H         -3.5901233505       -2.9426135801        0.2378301975
 H         -1.1259629832       -4.5031554267        1.2330884738
