  62
        -98.92930296
 C          2.1976524007        0.9910231750        0.2786815382
 C          2.7892543076       -0.0265825892        1.0648959573
 C          3.6733827224       -0.9883231425        0.3810829265
 C          3.8227633265       -0.8880015095       -0.9526915895
 C          4.6892528259       -1.7211470763       -1.8589286961
 C          6.1786546620       -1.3528606155       -1.7567731718
 C          6.6928332889       -1.1373820691       -0.3356832314
 H          7.7204151576       -0.7713086083       -0.4066834398
 H          6.1024886887       -0.3545954073        0.1440441124
 C          6.7011703127       -2.3813481630        0.5494500003
 H          7.3286327482       -3.1462345406        0.0865016438
 H          7.1647808553       -2.1014344169        1.4988650445
 C          5.3332633852       -2.9959078312        0.8527823976
 H          5.4716543963       -3.7122340946        1.6680665052
 H          4.9612488106       -3.5639048415        0.0042608450
 C          4.2767146338       -2.0014840915        1.3243250238
 H          4.6758135733       -1.4280294739        2.1688619293
 H          3.4283153675       -2.5636897110        1.7341325419
 H          6.3340090755       -0.4237699149       -2.3103930846
 H          6.7615922257       -2.1369252730       -2.2427956446
 H          4.5342528139       -2.7766827643       -1.6553626523
 H          4.3517073184       -1.5272527765       -2.8794652863
 O          3.1895581431        0.0730335111       -1.6801745062
 C          2.3689551140        1.0306163418       -1.1059680459
 O          1.8742169437        1.8223271365       -1.9256927527
 O          2.5955097362       -0.1308596006        2.3085285765
 C          1.2996727899        1.9934813179        0.9945590309
 C         -0.1081720404        1.8318732897        0.4782381410
 C         -0.6775237230        2.5304482216       -0.5797398007
 C         -1.9620157449        2.2367580035       -1.0061126802
 C         -2.7080231857        1.2414284995       -0.4031977953
 C         -2.1442184128        0.5186709902        0.6394782984
 C         -0.8638500733        0.8241774719        1.0724739446
 H         -0.4262887250        0.2495422382        1.8797914283
 N         -2.8855589119       -0.5068167782        1.2563912172
 S         -3.5491636957       -1.6854682228        0.2588861462
 O         -3.6929908699       -2.8547022924        1.0992715608
 O         -2.7758532672       -1.8536683825       -0.9503764745
 C         -5.1669117061       -1.0490653944       -0.1267120091
 C         -5.5487800738       -0.8880790727       -1.4441123767
 C         -6.8151881404       -0.3953740561       -1.7190103335
 C         -7.6722598251       -0.0751046233       -0.6773046860
 C         -7.2744265269       -0.2458068821        0.6404688165
 C         -6.0104703109       -0.7388007562        0.9221455150
 H         -5.6634088381       -0.8895629924        1.9306435842
 H         -7.9439067876        0.0040978000        1.4476422297
 H         -8.6562033867        0.3097419487       -0.8940715175
 H         -7.1261161746       -0.2627156388       -2.7428421266
 H         -4.8457927938       -1.1444642923       -2.2208803514
 H         -2.4031838440       -0.9374195816        2.0327641333
 H         -3.7054438531        1.0106982912       -0.7397629974
 H         -2.3848119697        2.7924316996       -1.8293858421
 H         -0.1134533115        3.2800665245       -1.1042148736
 H          1.2874785411        1.6283217911        2.0337106131
 C          1.9270788071        3.3782730680        1.0774412484
 C          2.1051298946        4.3425054167       -0.0552991110
 C          1.1387535038        4.6530615957        1.0474641007
 H          1.4008470363        5.4298728889        1.7502968813
 H          0.0828484053        4.5868431594        0.8386747161
 H          3.0335180847        4.8955008748       -0.0894938166
 H          1.7443762717        4.0641518550       -1.0310120272
 H          2.7552853646        3.3533641682        1.7822212807
