  62
        -98.93988968
 C          2.7053138841        0.6986139685        0.2343637484
 C          2.7708243883       -0.3705153023        1.1594888356
 C          3.2501510499       -1.6503216775        0.6270905823
 C          3.6031135388       -1.7430907348       -0.6682170296
 C          4.1277841965       -2.9744358099       -1.3556661062
 C          3.0303849334       -3.9293402372       -1.8455654581
 C          2.3099909782       -4.7110354963       -0.7462268011
 H          1.7256656063       -5.4908343939       -1.2384898846
 H          3.0462748023       -5.2066987239       -0.1128411036
 C          1.3689565521       -3.8631538837        0.1212087371
 H          0.4165474485       -4.3842796651        0.2416815440
 H          1.1559208862       -2.9203670582       -0.3887393229
 C          1.9008517404       -3.5609986217        1.5225041334
 H          1.1732979449       -2.9282732338        2.0377052232
 H          1.9957538057       -4.4912572689        2.0867522079
 C          3.2540750087       -2.8375496800        1.5425457020
 H          3.4342909920       -2.4747579502        2.5574573624
 H          4.0534263767       -3.5260936748        1.2701873163
 H          3.5010187137       -4.6460374088       -2.5224214998
 H          2.3017088529       -3.3558411659       -2.4232721562
 H          4.6945438892       -2.6280532206       -2.2224889146
 H          4.8050245177       -3.5074246079       -0.6878599743
 O          3.5335323463       -0.6892048955       -1.5239106194
 C          3.0558913511        0.5456295404       -1.1074110059
 O          3.0015711218        1.4026996252       -2.0087480891
 H          0.0600694621        0.4614774159        0.6025714047
 C         -0.1288180372        1.3829547644        0.0649174490
 C          0.8736321272        2.3447924018        0.0104781004
 C          0.6165382441        3.5295988912       -0.6645841404
 C         -0.6053067285        3.7292120874       -1.2853534369
 C         -1.5915999621        2.7618067980       -1.2463223550
 C         -1.3501863509        1.5766245058       -0.5619006459
 N         -2.3361560878        0.5699118111       -0.5257886370
 S         -3.9147969222        1.0486442230       -0.1554323787
 O         -4.4991578868        1.6475343145       -1.3285917402
 O         -3.9199899980        1.8648832328        1.0386614481
 C         -4.6787294697       -0.5286071576        0.1618877553
 C         -4.8140728186       -0.9675461610        1.4651146979
 C         -5.3890340318       -2.2070915202        1.6981360613
 C         -5.8125889300       -2.9830837082        0.6297190031
 C         -5.6693317634       -2.5286862613       -0.6730199866
 C         -5.0968066877       -1.2898296573       -0.9130531864
 H         -4.9732404073       -0.8917817512       -1.9066305972
 H         -6.0020591369       -3.1343336955       -1.5004497129
 H         -6.2597922344       -3.9470704207        0.8140996578
 H         -5.5041265983       -2.5616643159        2.7097771791
 H         -4.4783508203       -0.3273412922        2.2653543231
 H         -2.0597894200       -0.1981100211        0.0716405492
 H         -2.5450884076        2.9099745852       -1.7266062452
 H         -0.7911968902        4.6533814018       -1.8118006916
 H          1.3725614685        4.2957620447       -0.7118054999
 C          2.1789361393        2.0420862870        0.7065731127
 H          1.9661531846        1.9102397706        1.7782547350
 C          3.2257585191        3.1230560460        0.5492811685
 C          3.1963711916        4.3309302036        1.4359637391
 C          4.2592981829        3.2912275447        1.6210001617
 H          5.2711745578        3.5279069171        1.3283642727
 H          4.1948294634        2.6395738851        2.4802375514
 H          2.4102344834        4.3897877102        2.1735949135
 H          3.4805963209        5.2848388264        1.0181090633
 H          3.5468829921        3.2478506553       -0.4784061598
 O          2.4372453621       -0.2619457973        2.3710309613
