  62
        -98.94129267
 C         -1.6456394401        0.2917153616       -0.2611738582
 C         -2.7875113043        0.9970802754        0.1911857900
 C         -3.8846297157        0.1685170399        0.7114047597
 C         -3.7501033887       -1.1673608037        0.7801752385
 C         -4.7696478584       -2.1370290849        1.3131649471
 C         -5.8407806677       -2.5418681083        0.2910269962
 C         -6.8730625136       -1.4612453368       -0.0334785659
 H         -7.6806041851       -1.9455116988       -0.5862743661
 H         -7.2989687619       -1.0767671888        0.8938155151
 C         -6.3291437477       -0.2974618683       -0.8739145500
 H         -5.3871786134       -0.5940782665       -1.3408373386
 H         -7.0295167731       -0.0730175164       -1.6816280607
 C         -6.1071825067        0.9983275001       -0.0938286263
 H         -7.0659087525        1.3783179848        0.2662369668
 H         -5.6855207333        1.7409226059       -0.7760001042
 C         -5.1563972167        0.8596053487        1.1021368363
 H         -4.8965142822        1.8616979020        1.4517935707
 H         -5.6479318825        0.3229166601        1.9131954731
 H         -5.3439568908       -2.8586991923       -0.6288554187
 H         -6.3687679254       -3.4072111826        0.6983562017
 H         -4.2202618313       -3.0332581429        1.6090579088
 H         -5.2494994453       -1.7160600178        2.1971688558
 O         -2.6206511732       -1.8061965818        0.3751987903
 C         -1.5608204534       -1.1018416223       -0.1684444512
 O         -0.6064969431       -1.8190509131       -0.5299738318
 H          2.0736806334        0.1558151877       -0.2971641432
 C          1.7664760407        0.9670980151        0.3449713125
 C          0.4941448123        1.5028848736        0.2094058644
 C          0.1038556028        2.5316934697        1.0600923556
 C          0.9772897506        3.0122045511        2.0180269858
 C          2.2556127621        2.4945129493        2.1325423207
 C          2.6536155492        1.4634466943        1.2897110180
 N          3.9348114063        0.9070667298        1.3939795275
 S          4.7453166562        0.3495051999        0.0426958689
 O          6.1385977924        0.3553466254        0.4350495643
 O          4.4149483740        1.1177403682       -1.1346298060
 C          4.2052982456       -1.3361896463       -0.1367003452
 C          4.2959622063       -2.1705813036        0.9594988515
 C          3.9000966559       -3.4915028034        0.8288556617
 C          3.4252392347       -3.9539002980       -0.3891625655
 C          3.3440929138       -3.1047339505       -1.4813018522
 C          3.7383003944       -1.7822404341       -1.3564253188
 H          3.6854226588       -1.0872295818       -2.1801192328
 H          2.9699613764       -3.4647408317       -2.4262541843
 H          3.1137978270       -4.9817109530       -0.4888362822
 H          3.9600400105       -4.1562501281        1.6756605916
 H          4.6728404499       -1.7760654446        1.8884112726
 H          4.5510704923        1.3635392968        2.0500005489
 H          2.9408844838        2.8820636541        2.8711851669
 H          0.6639978137        3.8085032112        2.6763856574
 H         -0.8905522930        2.9403268355        0.9686380118
 C         -0.4254647494        0.9698094406       -0.8631789655
 H          0.1190456117        0.1784571287       -1.3963481508
 C         -0.7671211022        2.0635439257       -1.8574481421
 C          0.3058206365        2.5473488606       -2.7844943855
 C         -0.8359026524        1.7349572402       -3.3166915462
 H         -1.5818194293        2.2285047856       -3.9216450005
 H         -0.6417687624        0.7133940139       -3.6104319757
 H          0.3432634766        3.5991838921       -3.0237328949
 H          1.2784757572        2.0821826250       -2.7118616768
 H         -1.4695764250        2.7918952549       -1.4751705947
 O         -2.9121985435        2.2502512707        0.1759967128
