  62
        -98.94402248
 C          0.7544625780        1.4839439329        0.1660470630
 C          1.0733670868        0.4148647081       -0.7069323409
 C          2.2098661075       -0.4258433634       -0.2941570712
 C          2.7622828615       -0.2499606719        0.9181664820
 C          3.9459289230       -1.0075109822        1.4438832905
 C          5.2560303992       -0.2726861169        1.1244565209
 C          5.3747859775        0.1779786511       -0.3317937589
 H          4.6159763171        0.9375164079       -0.5338257060
 H          6.3483881647        0.6602886445       -0.4437787889
 C          5.2450046269       -0.9526804405       -1.3620263535
 H          6.0246442107       -0.8287955044       -2.1166428766
 H          5.4129707031       -1.9154671561       -0.8782823122
 C          3.9077597780       -0.9865944753       -2.1054034444
 H          3.6888619042        0.0035890091       -2.5134300684
 H          4.0066066148       -1.6726493222       -2.9509792699
 C          2.7016721397       -1.4493633430       -1.2773167018
 H          2.9465131465       -2.3852042848       -0.7739206395
 H          1.8693341825       -1.6324942495       -1.9631107172
 H          5.3202872540        0.6132063570        1.7604027397
 H          6.0914027286       -0.9299444381        1.3723845822
 H          3.8461899517       -1.0949340287        2.5267867941
 H          3.9600474234       -2.0025153962        1.0044860279
 O          2.3276397469        0.6915570107        1.7934528905
 C          1.3639764749        1.6101768208        1.4188300253
 O          1.1285431526        2.4822258933        2.2787282351
 O          0.4712242602        0.1611777420       -1.7837100614
 C         -0.2811628135        2.5546027658       -0.1457809775
 C         -1.6465547270        2.1280642735        0.3341573047
 C         -2.3439295690        2.8975456765        1.2579379226
 C         -3.5790929490        2.4865359144        1.7254881044
 C         -4.1286295320        1.2927472916        1.2961455437
 C         -3.4362823319        0.5146036352        0.3727967768
 C         -2.2112228382        0.9435486889       -0.1185296701
 H         -1.6895060203        0.3412577271       -0.8463723356
 N         -3.9678261168       -0.7100925538       -0.0440482132
 S         -3.0870511992       -1.9099455419       -0.7782445438
 O         -2.7536395224       -1.5343283914       -2.1283361489
 O         -3.9355415823       -3.0788807185       -0.6544701240
 C         -1.6019696553       -2.2132868142        0.1697062862
 C         -1.4268562124       -1.7369397923        1.4527544541
 C         -0.2730276092       -2.0784010615        2.1419360674
 C          0.6660158288       -2.9109672099        1.5563884414
 C          0.4651676355       -3.3998069185        0.2753422843
 C         -0.6711641746       -3.0387693589       -0.4283468542
 H         -0.8558963629       -3.3788725143       -1.4348644298
 H          1.1865103369       -4.0601343080       -0.1782248549
 H          1.5555012965       -3.1810350209        2.1031597923
 H         -0.1144705036       -1.6913328853        3.1361854784
 H         -2.1660757058       -1.0980911602        1.9079663166
 H         -4.7497363387       -1.0640056107        0.4850527034
 H         -5.0823735587        0.9570666965        1.6731248087
 H         -4.1124946629        3.0924872182        2.4417426308
 H         -1.9016839971        3.8122442104        1.6232590253
 H          0.0156790255        3.4334610277        0.4439376828
 C         -0.3280792536        2.9569710969       -1.6060723277
 C         -0.8411579307        4.3176889126       -1.9656096959
 C          0.6173790404        4.0037061284       -2.1097219727
 H          1.0289081942        3.8907939404       -3.1014590805
 H          1.3049452610        4.4400284548       -1.3993568403
 H         -1.4359853615        4.4221610835       -2.8599991209
 H         -1.1404814564        4.9707405382       -1.1597409916
 H         -0.5642215200        2.1375357395       -2.2722271749
