  62
        -98.93432065
 C         -2.2596716763       -0.4331640248        0.2359077362
 C         -3.5385061451       -0.8523029212        0.6711678961
 C         -4.6298456874        0.1257802118        0.5331816026
 C         -4.3629949133        1.3419652638        0.0268337249
 C         -5.3055243131        2.5036159379       -0.1674019663
 C         -6.7002604913        2.1983964941       -0.7311974943
 C         -6.7584020738        1.0278964221       -1.7235731479
 H         -7.2778875877        1.3540564733       -2.6265302295
 H         -5.7487286257        0.7353808455       -2.0172046236
 C         -7.5017734082       -0.1893485434       -1.1680916749
 H         -8.3989433704        0.1555308542       -0.6494956481
 H         -7.8268054580       -0.8137846848       -2.0037541274
 C         -6.6909417474       -1.0794117950       -0.2270680482
 H         -5.9208138021       -1.6113214051       -0.7922621909
 H         -7.3643326706       -1.8346266358        0.1851978115
 C         -5.9952986724       -0.3529322436        0.9356801385
 H         -6.6098188938        0.4579953380        1.3186111414
 H         -5.8353932984       -1.0790371354        1.7373186118
 H         -7.3897259218        2.0022978371        0.0886874766
 H         -7.0471317121        3.1093036017       -1.2219806163
 H         -5.4120898823        3.0185551268        0.7918105245
 H         -4.7789411699        3.1846918837       -0.8402890617
 O         -3.1098284990        1.7084379279       -0.3691378782
 C         -2.0329270211        0.8402479805       -0.2821603143
 O         -0.9551205860        1.3167436025       -0.6890804720
 H          1.5886271832       -1.0670579739       -0.2616501765
 C          1.3172270800       -0.7026949012        0.7138138396
 C          0.0098576090       -0.7948544706        1.1635889714
 C         -0.2962065811       -0.3135065852        2.4345150059
 C          0.6775798945        0.2661749053        3.2229241771
 C          1.9758830765        0.3832760488        2.7579627372
 C          2.2959286374       -0.1054339439        1.4975380487
 N          3.6241108751       -0.0407829766        1.0305975886
 S          3.9511690499        0.4757997008       -0.5440389466
 O          3.5422225836        1.8530443740       -0.7175937873
 O          3.4256925406       -0.4798698570       -1.4837942199
 C          5.7319926519        0.3682978021       -0.5185285401
 C          6.3109960372       -0.8852649083       -0.5773387889
 C          7.6920292222       -0.9882266131       -0.5340464468
 C          8.4674555596        0.1575916346       -0.4330778676
 C          7.8724508386        1.4086580674       -0.3769817749
 C          6.4910239324        1.5182324089       -0.4181179636
 H          5.9846146107        2.4695527747       -0.3841143443
 H          8.4775736425        2.2977214425       -0.3012835968
 H          9.5423343383        0.0749193663       -0.4001827904
 H          8.1584013364       -1.9591584162       -0.5794668002
 H          5.6687188009       -1.7459351816       -0.6638746707
 H          4.2143070743        0.4819279983        1.6661200127
 H          2.7353599638        0.8488596993        3.3682392537
 H          0.4241836196        0.6398464442        4.2038148431
 H         -1.3147227855       -0.3928984594        2.7903639804
 C         -1.0951699906       -1.4012209032        0.3356491656
 H         -1.4884129745       -2.2774339003        0.8729622957
 C         -0.6534461843       -1.8366526614       -1.0452491838
 C         -0.0026124426       -3.1719085302       -1.2425180174
 C         -1.3985935301       -2.9386545507       -1.7345062593
 H         -1.5669873456       -2.8600779570       -2.7981724566
 H         -2.2147367639       -3.3963234547       -1.1945393521
 H          0.1295840040       -3.7949016779       -0.3709306570
 H          0.7940687677       -3.2501921977       -1.9669356738
 H         -0.3098357750       -1.0073199622       -1.6553521219
 O         -3.7574465820       -1.9898739625        1.1668450413
