  62
        -98.94263488
 C          1.4543152168        1.4587090291        0.2929949956
 C          1.9529720975        0.9713186764       -0.9401778708
 C          2.8828654600       -0.1656531664       -0.8477162136
 C          3.2110960490       -0.6583825166        0.3603445966
 C          4.1013022782       -1.8449280328        0.5892381238
 C          3.2899631959       -3.1462335506        0.6544454903
 C          2.2929307958       -3.3100491180       -0.4928113690
 H          1.7947432709       -4.2726709184       -0.3589744781
 H          1.5248633292       -2.5367945702       -0.4118775949
 C          2.9236837517       -3.2564431318       -1.8915578075
 H          3.9981396930       -3.4294652314       -1.8206283314
 H          2.5050761071       -4.0639890976       -2.4960800338
 C          2.6724285529       -1.9544609093       -2.6546120317
 H          2.9740486369       -2.1067239630       -3.6944593246
 H          1.6020665431       -1.7308443352       -2.6573494370
 C          3.4217387142       -0.7202711874       -2.1364294916
 H          4.4857385996       -0.9477068307       -2.0454798582
 H          3.3027545963        0.0752170743       -2.8781945540
 H          3.9853162708       -3.9874603254        0.6563900817
 H          2.7370065028       -3.1589688184        1.5958083249
 H          4.8355561175       -1.9013047069       -0.2120485530
 H          4.6232975166       -1.7048460326        1.5372136044
 O          2.7287170807       -0.1507317557        1.5221785253
 C          1.8431104695        0.9143991320        1.5184501062
 O          1.4814861576        1.2855534387        2.6519260335
 O          1.6360992731        1.4432993228       -2.0637568228
 C          0.4775864947        2.6137251474        0.3463314984
 C         -0.8887531826        2.2744652560       -0.2068987586
 C         -1.8935610818        3.2389104869       -0.2090033535
 C         -3.1668690212        2.9403081060       -0.6578689560
 C         -3.4703815905        1.6729061284       -1.1255005843
 C         -2.4734099552        0.7109853421       -1.1439726545
 C         -1.1998371232        1.0084497527       -0.6771152264
 H         -0.4421676605        0.2360699722       -0.6843518852
 N         -2.7891783703       -0.5955569467       -1.5982903416
 S         -3.5175379889       -1.5476160890       -0.4262292802
 O         -3.6903457056       -2.8547182122       -1.0164140459
 O         -4.7108588754       -0.8772335980        0.0197484617
 C         -2.3166385427       -1.6251518222        0.8898175280
 C         -2.2316971931       -0.5720127137        1.7796186541
 C         -1.2230302285       -0.5793416454        2.7297137413
 C         -0.3252692322       -1.6346011790        2.7759872760
 C         -0.4302207804       -2.6889228316        1.8821045783
 C         -1.4274157824       -2.6804689845        0.9200448832
 H         -1.5381102681       -3.4758439857        0.2000594391
 H          0.2648254153       -3.5122052684        1.9262035793
 H          0.4665982041       -1.6205628539        3.5085459496
 H         -1.1183938849        0.2450606629        3.4164286857
 H         -2.9517919968        0.2281366620        1.7178645690
 H         -1.9847418202       -1.0899580579       -1.9593118778
 H         -4.4598789728        1.4115840030       -1.4624318196
 H         -3.9329854156        3.7000965243       -0.6424194054
 H         -1.6712801849        4.2302839813        0.1526616967
 H          0.3490444396        2.8451450130        1.4141618724
 C          1.0477784988        3.8423737361       -0.3441283011
 C          0.8699085109        5.2065772466        0.2486749000
 C          2.2148820173        4.5472853220        0.2776577521
 H          2.9953920341        4.9218986166       -0.3671720459
 H          2.5752613695        4.1669761986        1.2229592409
 H          0.7216844984        6.0418819042       -0.4187822328
 H          0.3382778900        5.2875808607        1.1851310443
 H          1.0432804071        3.7531942402       -1.4238211976
