  62
        -98.94153350
 C         -2.8228809607       -0.7840131665       -0.1418558916
 C         -2.3867830302        0.1636257515       -1.0999698876
 C         -2.7743978533        1.5599682249       -0.8488959413
 C         -3.5275328172        1.8598699977        0.2237144309
 C         -3.9392510684        3.2446091534        0.6287148829
 C         -2.9225260680        3.8631095160        1.5982391903
 C         -1.4711457287        3.7540751071        1.1287837578
 H         -0.8493952822        4.2579868298        1.8723664824
 H         -1.1668171231        2.7038636130        1.1252085243
 C         -1.2027160220        4.3601920161       -0.2555805464
 H         -2.0100364405        5.0430070153       -0.5245121542
 H         -0.2818378479        4.9448532327       -0.2061871409
 C         -1.0125179350        3.3312927355       -1.3717228494
 H         -0.2638894113        2.5953423912       -1.0628154079
 H         -0.6127613714        3.8519762087       -2.2464637436
 C         -2.2820282077        2.5950133322       -1.8207358646
 H         -3.0674405871        3.3209595940       -2.0412876877
 H         -2.0444118096        2.0544381404       -2.7415164166
 H         -3.1794554363        4.9139246939        1.7437996552
 H         -3.0079143700        3.3547549456        2.5614687627
 H         -4.0338318963        3.8651874302       -0.2600552451
 H         -4.9092734342        3.1832289253        1.1248641955
 O         -3.9660405389        0.9202366327        1.0991664344
 C         -3.6034927504       -0.4066288870        0.9562739460
 O         -4.0437245998       -1.1534694823        1.8531418133
 O         -1.7044220173       -0.1134816206       -2.1239014559
 C         -2.4374309440       -2.2572935319       -0.1817833403
 C         -1.0414014800       -2.4077983146        0.3749220926
 C         -0.8117437084       -3.0616452998        1.5796140483
 C          0.4619446296       -3.1216640572        2.1190649044
 C          1.5290259685       -2.5190688644        1.4767384891
 C          1.3069406828       -1.8614832582        0.2753884067
 C          0.0368135228       -1.8257898699       -0.2766307148
 H         -0.1252780442       -1.2969647842       -1.2044679253
 N          2.3840497550       -1.1946285524       -0.3626962080
 S          2.8002088643        0.2824030840        0.3557892273
 O          2.6302184505        0.1735033264        1.7828354826
 O          2.0901302944        1.3603601572       -0.3000195901
 C          4.5347396409        0.3700001732       -0.0437031759
 C          5.4077002675       -0.4274110058        0.6704861758
 C          6.7544421867       -0.4045461968        0.3467721792
 C          7.2029817335        0.4095365801       -0.6829496822
 C          6.3144492219        1.2036031283       -1.3913889753
 C          4.9654233126        1.1841926102       -1.0722048016
 H          4.2395857304        1.7883081873       -1.5924888038
 H          6.6656459414        1.8361718351       -2.1907599487
 H          8.2517840057        0.4258436565       -0.9340435299
 H          7.4484942249       -1.0203174541        0.8957921125
 H          5.0149758788       -1.0382223625        1.4663560982
 H          2.1589171722       -0.9931611449       -1.3293826484
 H          2.5181981752       -2.5312873398        1.9034771624
 H          0.6218085277       -3.6320466151        3.0567986436
 H         -1.6461764396       -3.5021770476        2.1062604678
 H         -3.1294967308       -2.7651622113        0.5028939933
 C         -2.5695470677       -2.8887751554       -1.5529355852
 C         -2.6744829540       -4.3798702087       -1.6534400815
 C         -3.8688418399       -3.5226632451       -1.9442990336
 H         -4.2006175515       -3.4253577273       -2.9670212331
 H         -4.6717146122       -3.5030356222       -1.2215426972
 H         -2.1842981745       -4.8756947484       -2.4770446838
 H         -2.6686186641       -4.9440627213       -0.7330849711
 H         -2.0204846805       -2.3673852361       -2.3252349712
