  62
        -98.93685865
 C         -2.1602414685       -0.9845301363       -0.0432887330
 C         -2.8721611234       -0.2796239655        0.9548182008
 C         -3.7023600424        0.8417249595        0.4901596509
 C         -3.7129047418        1.1485803825       -0.8201682766
 C         -4.5663081668        2.2067234028       -1.4597561771
 C         -6.0147325838        1.6971600682       -1.6036813684
 C         -7.0382412893        2.4607879940       -0.7631181740
 H         -7.2394337551        3.4238165823       -1.2370303335
 H         -7.9667765351        1.8861982071       -0.7772604305
 C         -6.6407998010        2.7292843760        0.6916243073
 H         -7.5486630652        3.0299159106        1.2189264682
 H         -5.9600046607        3.5807750427        0.7355784065
 C         -6.0036364995        1.5523913688        1.4416968551
 H         -6.3042015324        0.6038194607        0.9962574963
 H         -6.3830394356        1.5569145235        2.4656158897
 C         -4.4671504913        1.6074882445        1.5344641649
 H         -4.1388697589        2.6508883173        1.5369407449
 H         -4.1588462047        1.1653946268        2.4867983553
 H         -6.0341678231        0.6399473216       -1.3309260213
 H         -6.3189644182        1.7568108378       -2.6496614495
 H         -4.1390186359        2.4196306503       -2.4397637073
 H         -4.5373883517        3.1148299278       -0.8616177092
 O         -2.9885107493        0.4673853120       -1.7451674091
 C         -2.1937173056       -0.6120184649       -1.3870605844
 O         -1.5821665947       -1.1368304056       -2.3351081896
 O         -2.8095858752       -0.5700815882        2.1815305673
 C         -1.2925062849       -2.1617276889        0.3622579321
 C          0.1526608162       -1.8874689697        0.0232208929
 C          0.9780481577       -2.8051344078       -0.6123133329
 C          2.2981205788       -2.4888265085       -0.8849388254
 C          2.8238729836       -1.2609310700       -0.5293794799
 C          2.0121463885       -0.3409281506        0.1219848964
 C          0.6920663139       -0.6620867021        0.3965760279
 H          0.0608199665        0.0560145869        0.9067652174
 N          2.5342037430        0.9138782928        0.4826038602
 S          3.9773046581        0.9589763399        1.3408615981
 O          4.1591665286       -0.2359299332        2.1320006558
 O          3.9462957342        2.2117048337        2.0640459478
 C          5.2264921154        1.0512883561        0.0758246376
 C          5.1650268680        2.0983251122       -0.8227088272
 C          6.1331227066        2.1904854435       -1.8097816192
 C          7.1419231210        1.2410753708       -1.8795661733
 C          7.1915899459        0.1977535880       -0.9678693855
 C          6.2256586884        0.0993544251        0.0216484393
 H          6.2213528987       -0.6963934245        0.7494211169
 H          7.9768486209       -0.5388699189       -1.0237495758
 H          7.8938833653        1.3153882009       -2.6492022502
 H          6.0975484108        3.0003254913       -2.5206023782
 H          4.3673460066        2.8166664655       -0.7314248480
 H          1.8537077742        1.5293883705        0.9039494555
 H          3.8487999340       -1.0091377596       -0.7471490449
 H          2.9255827932       -3.2092434515       -1.3870459688
 H          0.5873949333       -3.7671740245       -0.8998822691
 H         -1.3755748546       -2.2221407470        1.4581944928
 C         -1.8263386036       -3.4455969143       -0.2371357105
 C         -1.6125430317       -4.7527381561        0.4640785004
 C         -2.9762424780       -4.1327776602        0.4342711960
 H         -3.7378269069       -4.5858231280       -0.1824787588
 H         -3.3577106051       -3.6883705970        1.3422081865
 H         -1.4399460199       -5.6359847487       -0.1321045085
 H         -1.0692288886       -4.7364387651        1.3968661063
 H         -1.8139447560       -3.4347550961       -1.3211200084
