  62
        -98.93779133
 C         -2.4720660127       -1.0392708204        0.3119544477
 C         -2.5825526158       -0.1641941968       -0.7932218900
 C         -3.0161368014        1.2152315195       -0.5005195983
 C         -3.2573452013        1.5757967635        0.7707306962
 C         -3.6092643500        2.9428522465        1.2871214031
 C         -2.3374833320        3.6944618004        1.7167493114
 C         -1.6487430817        4.4857469020        0.6058627014
 H         -2.2642438219        5.3498608498        0.3452741584
 H         -0.7066502436        4.8616625912        1.0114858460
 C         -1.3455371503        3.6993839367       -0.6724710958
 H         -0.9295593143        2.7211886213       -0.4184583662
 H         -0.5637331787        4.2354853078       -1.2158059101
 C         -2.5690405701        3.5452638497       -1.5884714299
 H         -2.2971201251        3.8468756554       -2.6024384472
 H         -3.3465083243        4.2346552781       -1.2585365047
 C         -3.1470861924        2.1258414190       -1.6910522904
 H         -4.2056912121        2.1915524211       -1.9646675450
 H         -2.6456110371        1.5922118096       -2.5045706329
 H         -2.5942767870        4.3906140503        2.5179107263
 H         -1.6372087275        2.9626222700        2.1283097435
 H         -4.1682422340        3.5056467187        0.5456134024
 H         -4.2389842564        2.7923255031        2.1663754750
 O         -3.1448531500        0.7032525400        1.8085273959
 C         -2.7433137111       -0.6016772154        1.6125898687
 O         -2.6736370087       -1.2778021232        2.6584107274
 O         -2.3257860071       -0.4882735154       -1.9864398928
 C         -1.9686017522       -2.4739644275        0.2138193543
 C         -0.4586998211       -2.4495774895        0.2246915715
 C          0.2726274930       -3.0480319118        1.2435759913
 C          1.6515568043       -2.9309994045        1.2851861094
 C          2.3256645528       -2.1917675065        0.3285354833
 C          1.6008753109       -1.5908544787       -0.6909603788
 C          0.2269800020       -1.7445872138       -0.7542207016
 H         -0.3241343904       -1.2643921135       -1.5493335468
 N          2.2708512555       -0.7482297329       -1.6182451681
 S          2.4945250035        0.7957619339       -0.9651895783
 O          1.4110251978        1.1573010410       -0.0778501067
 O          2.7251791735        1.6740637094       -2.0914314206
 C          4.0025528528        0.6039549836       -0.0404690748
 C          3.9623182274        0.5851993655        1.3395038922
 C          5.1440149976        0.4022851741        2.0409956925
 C          6.3371438283        0.2409640009        1.3531353955
 C          6.3605742145        0.2641987523       -0.0336264055
 C          5.1829270005        0.4465619871       -0.7406195461
 H          5.1529515805        0.4766871261       -1.8169717583
 H          7.2905766509        0.1392307332       -0.5643007557
 H          7.2542975866        0.0965995047        1.9020243270
 H          5.1270647597        0.3836658303        3.1188684958
 H          3.0099436351        0.7094108897        1.8302902197
 H          1.7464890302       -0.6437531934       -2.4778521733
 H          3.3962856639       -2.0722944657        0.3674932627
 H          2.2050590357       -3.4028976023        2.0824325893
 H         -0.2509100452       -3.5847887955        2.0212626073
 H         -2.3041186977       -2.9720449523        1.1333668510
 C         -2.5092987015       -3.2439649994       -0.9734271522
 C         -2.5001781617       -4.7414080429       -0.9273463913
 C         -3.7969638337       -3.9961622810       -0.8333471490
 H         -4.4717691489       -4.0200999784       -1.6756553413
 H         -4.2959008873       -3.9579614022        0.1242071161
 H         -2.2824717672       -5.2820575431       -1.8354663550
 H         -2.1213983797       -5.2120098279       -0.0327643956
 H         -2.3152665558       -2.7661788031       -1.9242340822
