  62
        -98.94489323
 C         -1.9331495067       -0.4580112431       -0.6617561887
 C         -2.9839376045       -1.2947354631       -0.2143223267
 C         -4.3316825697       -0.7200562132       -0.2815799349
 C         -4.5030961721        0.5230183552       -0.7672324023
 C         -5.8178118481        1.2389400821       -0.9201925051
 C         -6.3007265554        1.9375097668        0.3584054430
 C         -6.8084890185        1.0039768645        1.4581004944
 H         -7.3132992039        1.6270604076        2.1990911928
 H         -7.5537663551        0.3256551174        1.0415607602
 C         -5.7082243719        0.1958228111        2.1600437222
 H         -4.7361142849        0.6500020162        1.9540937319
 H         -5.8585986405        0.2386846154        3.2411352806
 C         -5.6585445937       -1.2808157221        1.7673931120
 H         -6.5770632331       -1.7767011315        2.0888529759
 H         -4.8220778346       -1.7476323747        2.2936011462
 C         -5.4698674454       -1.5282026496        0.2649071309
 H         -5.2285471316       -2.5838126934        0.1184711603
 H         -6.3904638852       -1.3018719674       -0.2723471562
 H         -5.4862458646        2.5522567977        0.7487131047
 H         -7.1158634764        2.6073815812        0.0750299340
 H         -5.6697533360        1.9976725214       -1.6916935564
 H         -6.5794090612        0.5382848975       -1.2637005371
 O         -3.4683064894        1.2883320748       -1.2060289669
 C         -2.1590373791        0.8303204085       -1.1459897211
 O         -1.3125092114        1.6489489609       -1.5519664139
 O         -2.8029111512       -2.4631767670        0.2210548760
 C         -0.5084550911       -0.9814590689       -0.6032891659
 C          0.3183786101       -0.0897749783        0.2886875142
 C         -0.0982185642        0.0978876375        1.6053983767
 C          0.5981947212        0.9328371598        2.4557344898
 C          1.7337953295        1.5911400295        2.0153504592
 C          2.1620805717        1.4074770049        0.7069521305
 C          1.4592486760        0.5647048786       -0.1457740716
 H          1.8048479050        0.4585130589       -1.1596613696
 N          3.2999676749        2.0791357062        0.2324156444
 S          4.4499388166        1.2788078254       -0.6775138681
 O          5.6007915429        2.1544039133       -0.6539625365
 O          3.9274824697        0.9468664370       -1.9776236236
 C          4.7958625883       -0.2016791619        0.2543990400
 C          5.6573995387       -0.1099216473        1.3305485634
 C          5.8858234573       -1.2353945961        2.1049453431
 C          5.2445637109       -2.4259289770        1.7971015806
 C          4.3831576376       -2.5013145638        0.7137216880
 C          4.1533991424       -1.3796059927       -0.0675907500
 H          3.4941974919       -1.4011124456       -0.9193526121
 H          3.8869534122       -3.4282530736        0.4739667523
 H          5.4187617723       -3.3012914196        2.4027316372
 H          6.5589368322       -1.1812663519        2.9453584689
 H          6.1435493588        0.8315858632        1.5286972914
 H          3.7399231731        2.6828061299        0.9114633199
 H          2.2754326861        2.2522968583        2.6746610535
 H          0.2577513304        1.0734212262        3.4705331804
 H         -0.9874722836       -0.4143020085        1.9469155650
 H         -0.5842764888       -1.9706497982       -0.1279613211
 C          0.0536798082       -1.1551162971       -1.9973465812
 C          1.1053893579       -2.1897633375       -2.2595476402
 C         -0.2890175322       -2.3921153699       -2.7702033911
 H         -0.4713459337       -2.3025237721       -3.8306153438
 H         -0.9112782649       -3.1267691078       -2.2803023799
 H          1.8868508200       -1.9613260874       -2.9695371153
 H          1.4235248095       -2.7969940009       -1.4253502144
 H          0.1035963874       -0.2241304342       -2.5514206274
