  62
        -98.94552939
 C         -1.4491441533       -1.2705883158        0.1312787442
 C         -1.5605717111        0.0102469705       -0.4652462540
 C         -2.6797839096        0.8426322986        0.0047769312
 C         -3.5006258338        0.3781549429        0.9627655939
 C         -4.7039573586        1.1022428174        1.4920033800
 C         -5.9653747822        0.7442121265        0.6933328670
 C         -5.7875838822        0.8428555608       -0.8218032347
 H         -5.0721718010        0.0839296981       -1.1462666876
 H         -6.7485190648        0.5959948867       -1.2782750184
 C         -5.3242036214        2.2193338596       -1.3188149167
 H         -5.9210385074        2.4966154522       -2.1902903765
 H         -5.5050612644        2.9712311110       -0.5497359108
 C         -3.8565536221        2.2780126269       -1.7469093621
 H         -3.6472722464        1.4684846607       -2.4505179299
 H         -3.6931393233        3.2216419827       -2.2742988747
 C         -2.8294844841        2.2056492702       -0.6100215115
 H         -1.8482558255        2.4584040899       -1.0232606973
 H         -3.0708563095        2.9468559437        0.1551701754
 H         -6.2493857031       -0.2817920654        0.9385668267
 H         -6.7734493463        1.4056842617        1.0109657536
 H         -4.8486161787        0.8112405979        2.5339807142
 H         -4.5236932023        2.1748072232        1.4480619448
 O         -3.3517516546       -0.8461895704        1.5300677859
 C         -2.3322695547       -1.6920247778        1.1293102291
 O         -2.3182696804       -2.7898019979        1.7237812968
 O         -0.7829904941        0.4567916219       -1.3487016745
 C         -0.3622165129       -2.2697841942       -0.2219973479
 C          0.9098921266       -2.0496112337        0.5667434277
 C          1.7332390661       -3.1291298601        0.8719650931
 C          2.9074905558       -2.9431774631        1.5767870854
 C          3.2916365971       -1.6770867589        1.9814340446
 C          2.4761943200       -0.5916625501        1.6848734042
 C          1.2933956090       -0.7848919181        0.9831612424
 H          0.6672994172        0.0685044943        0.7795263059
 N          2.8278930528        0.7014216797        2.0995273867
 S          2.5915414806        2.0045484024        1.0729964499
 O          3.4522328134        3.0352768922        1.6166650427
 O          1.1920853563        2.3337507039        0.9950858205
 C          3.2418966591        1.4518266849       -0.4925037728
 C          2.4047078388        1.0242194981       -1.5016590345
 C          2.9710554636        0.5382172532       -2.6713767069
 C          4.3484077847        0.4865249548       -2.8108975613
 C          5.1750478017        0.9265209028       -1.7876350530
 C          4.6183280394        1.4106004236       -0.6162906282
 H          5.2233634456        1.7744244093        0.1984322358
 H          6.2467542236        0.8906806073       -1.8989482954
 H          4.7792622888        0.1037643200       -3.7226751316
 H          2.3242074392        0.2005404363       -3.4657885213
 H          1.3342821792        1.0684270696       -1.3722846934
 H          3.7236867015        0.7631666661        2.5613188909
 H          4.2069987945       -1.5285315686        2.5334599588
 H          3.5323618865       -3.7906264209        1.8132374900
 H          1.4388020888       -4.1212548258        0.5661166793
 H         -0.7595250354       -3.2535026999        0.0668204255
 C         -0.0351190146       -2.3040179697       -1.7043104700
 C          0.3761385579       -3.5904624560       -2.3515055806
 C         -0.9681968214       -2.9981992461       -2.6485073991
 H         -1.1431950060       -2.5553175879       -3.6172805335
 H         -1.8405594785       -3.4752297502       -2.2248253163
 H          1.1334044873       -3.5588882255       -3.1193829075
 H          0.4060249179       -4.4792676158       -1.7401653653
 H          0.4325231375       -1.3932954526       -2.0536530422
