  62
        -98.94355625
 C         -1.0102425093       -1.5131571328       -0.6578199904
 C         -0.4187447427       -1.9551195332        0.5469710819
 C          1.0201898039       -2.2882254600        0.5010301239
 C          1.6792044556       -2.1624825697       -0.6655124840
 C          3.1287267986       -2.4471608825       -0.9685953409
 C          4.0920505624       -1.3784243772       -0.4341867277
 C          3.8424884195       -0.9564354775        1.0109698155
 H          4.5490184814       -0.1560603095        1.2500048180
 H          2.8417492998       -0.5298826127        1.1090341925
 C          4.0234313312       -2.0647563199        2.0460492074
 H          3.9628521787       -1.5937532144        3.0305792595
 H          5.0228128359       -2.4940310837        1.9432868278
 C          2.9921872231       -3.1966374869        2.0032559199
 H          3.2311252482       -3.9264404791        1.2335945262
 H          3.0497084398       -3.7244056606        2.9595714349
 C          1.5500399940       -2.7263277424        1.8435774529
 H          0.8774277689       -3.5270382172        2.1735839641
 H          1.3616047471       -1.8905490626        2.5287684415
 H          5.1107870363       -1.7599649029       -0.5289319104
 H          4.0080131588       -0.4891344352       -1.0640944340
 H          3.2154293908       -2.4792152277       -2.0572539711
 H          3.4016418568       -3.4271607485       -0.5877484938
 O          1.0640495825       -1.7236940065       -1.8037380423
 C         -0.2704939723       -1.3671876514       -1.8283890686
 O         -0.6751149662       -0.9463582508       -2.9313520385
 O         -1.0615314395       -2.0813165477        1.6227706371
 C         -2.4729682807       -1.1077066984       -0.6823273643
 C         -2.7035735733       -0.0087748654        0.3268592424
 C         -3.7992724657        0.0419308565        1.1783652095
 C         -3.9190166974        1.0681465181        2.1000933349
 C         -2.9485163217        2.0476259711        2.2049953857
 C         -1.8551132244        2.0128944486        1.3468306163
 C         -1.7602702207        1.0078557435        0.3999737909
 H         -0.9131624660        0.9873379987       -0.2698039889
 N         -0.8461806557        2.9863297618        1.4049115707
 S          0.7414421816        2.5344711601        1.1184933482
 O          1.0207823709        1.1987579245        1.5885784764
 O          1.5250383318        3.5938316782        1.7212005034
 C          0.9142622833        2.6293210928       -0.6496324837
 C          0.4462408332        3.7496607459       -1.3067815703
 C          0.5888026100        3.8229576394       -2.6830406523
 C          1.1936065797        2.7835425886       -3.3740374734
 C          1.6648605103        1.6687727129       -2.6986275895
 C          1.5261122647        1.5917300937       -1.3226462778
 H          1.8615950434        0.7349711342       -0.7593689575
 H          2.1202576568        0.8509136812       -3.2342691813
 H          1.2951366037        2.8370938067       -4.4464686514
 H          0.2231091663        4.6865844578       -3.2147794953
 H         -0.0212692013        4.5348817293       -0.7364057559
 H         -0.9224465012        3.6381080052        2.1722690320
 H         -3.0297560292        2.8291321251        2.9451288578
 H         -4.7722984087        1.0945574870        2.7609022551
 H         -4.5524212879       -0.7274790971        1.1305023544
 H         -2.6585588336       -0.6985444287       -1.6866914788
 C         -3.3626567756       -2.3154580116       -0.4737090699
 C         -4.7269617279       -2.3667858420       -1.0915350032
 C         -3.6259701301       -3.2264110997       -1.6337058495
 H         -3.6635922733       -4.2906189301       -1.4557227937
 H         -3.1840493847       -2.9579680050       -2.5823808988
 H         -5.5240076383       -2.8451903774       -0.5424378091
 H         -5.0419584990       -1.5185733101       -1.6801781133
 H         -3.2203176473       -2.7713245443        0.4994585557
