  62
        -98.93337274
 C         -2.5960025204       -1.1867996558        0.3661110242
 C         -2.9665359540       -0.4638019361       -0.7958999034
 C         -3.9228937768        0.6330130795       -0.5816958180
 C         -4.4002511168        0.8834832158        0.6496821608
 C         -5.3999174949        1.9466466804        1.0160843533
 C         -4.7807982767        3.3321168994        1.2462167742
 C         -4.3047895054        4.0497717876       -0.0175159220
 H         -5.1120597865        4.0658588435       -0.7503248181
 H         -4.0976097042        5.0847811762        0.2616252252
 C         -3.0428729306        3.4473804571       -0.6512985454
 H         -2.3444865113        4.2483551949       -0.9037258086
 H         -2.5408887692        2.8040300115        0.0753920310
 C         -3.2948405182        2.6470009302       -1.9292447036
 H         -3.6706259604        3.3122541632       -2.7097106478
 H         -2.3412816182        2.2334221217       -2.2672564125
 C         -4.2819248354        1.4844427518       -1.7619416792
 H         -5.2985653008        1.8640545906       -1.6631850093
 H         -4.2260635449        0.8563054517       -2.6541033167
 H         -3.9461484362        3.2299871166        1.9438654229
 H         -5.5408393654        3.9526225639        1.7266815078
 H         -6.1651905054        2.0123513944        0.2422524166
 H         -5.8721984652        1.6219468000        1.9458297713
 O         -4.0241456194        0.1600331817        1.7390064062
 C         -3.0985073233       -0.8623306101        1.6279736527
 O         -2.8080534472       -1.4058780369        2.7154315001
 H          0.2032783814       -1.0513852317        1.7027416855
 C          0.5280639990       -1.1361967273        0.6721644987
 C         -0.2872252315       -1.8091626924       -0.2350128131
 C          0.1415074849       -1.8880124724       -1.5539329627
 C          1.3476475449       -1.3245471434       -1.9368621349
 C          2.1494661016       -0.6588660758       -1.0294131817
 C          1.7281308988       -0.5576514687        0.2899084126
 N          2.5158740491        0.1443722328        1.2201083158
 S          4.1408796865       -0.2592424550        1.3443007350
 O          4.3671162334       -1.6483886142        1.0181288971
 O          4.5336233760        0.1608361313        2.6718565240
 C          4.9386441120        0.7872931721        0.1452400502
 C          4.6991892515        2.1462991977        0.2029508256
 C          5.3235399013        2.9748141408       -0.7156832821
 C          6.1754115704        2.4342565328       -1.6675586174
 C          6.4084135977        1.0682168996       -1.7096688547
 C          5.7853460775        0.2334531375       -0.7948913508
 H          5.9301509084       -0.8350535544       -0.7939732271
 H          7.0706954662        0.6501069253       -2.4505492956
 H          6.6603744520        3.0818979360       -2.3807760267
 H          5.1440835616        4.0374920802       -0.6867637383
 H          4.0321806669        2.5264641902        0.9587214562
 H          2.0971474603        0.2119020056        2.1366000735
 H          3.0850226942       -0.2165150292       -1.3302544585
 H          1.6613297668       -1.3992133177       -2.9670187638
 H         -0.4704928360       -2.3590259929       -2.3009875731
 C         -1.5899002205       -2.3324433191        0.3199056399
 H         -1.3967148639       -2.5658063664        1.3789944222
 C         -2.2199234422       -3.5982996541       -0.2452671297
 C         -2.5740868807       -3.8460233324       -1.6792264444
 C         -1.4738114302       -4.6329655761       -1.0326885723
 H         -1.6584880030       -5.6724456515       -0.8049334915
 H         -0.4528347276       -4.4209738440       -1.3075411394
 H         -3.5105208007       -4.3490079880       -1.8762780494
 H         -2.3428738470       -3.0833089541       -2.4036032349
 H         -2.9406615860       -3.9823036524        0.4740213765
 O         -2.5374153477       -0.7035742663       -1.9502927943
