  62
        -98.93343329
 C         -1.5098008415       -1.2177328918       -0.5394796078
 C         -0.3938152281       -1.6634517226       -1.2817452665
 C          0.5205037662       -2.6032074899       -0.6118775597
 C          0.2849693581       -2.9484241345        0.6675793104
 C          1.0194106033       -3.9014402798        1.5869515936
 C          2.4484349178       -4.3411987093        1.2792036638
 C          3.4860744510       -3.2223545908        1.3325035349
 H          4.4580802321       -3.6501528412        1.0749707435
 H          3.5471764318       -2.8454427464        2.3566491379
 C          3.2113324417       -2.0331525335        0.4146811090
 H          4.0621580762       -1.3490968782        0.4900883963
 H          2.3376669844       -1.4825662973        0.7730768236
 C          3.0254501486       -2.3914684457       -1.0595266234
 H          3.8490714813       -3.0307722057       -1.3835499287
 H          3.0830530399       -1.4623690534       -1.6306363618
 C          1.6950422365       -3.0831514698       -1.4174101667
 H          1.7797043084       -4.1653739018       -1.3362224838
 H          1.4625336704       -2.8512238892       -2.4609703169
 H          2.4923958323       -4.8478811443        0.3195800118
 H          2.7162780785       -5.0774952302        2.0420447868
 H          0.3892253052       -4.7954151945        1.6585091551
 H          0.9974508798       -3.4267999811        2.5732273394
 O         -0.7973307407       -2.4804433942        1.3510386264
 C         -1.7108321743       -1.6069572808        0.7845160721
 O         -2.6360854726       -1.2754417409        1.5479304837
 O         -0.1675565028       -1.2941731092       -2.4676270604
 C         -2.4661069832       -0.2168858871       -1.1828736540
 C         -2.5893963194        0.9475990776       -0.2295506988
 C         -3.7163691945        1.4151887417        0.4316314293
 C         -3.6113889045        2.4378703148        1.3617850942
 C         -2.3893413103        2.9918474914        1.6878579161
 C         -1.2515844537        2.5373840521        1.0298248019
 C         -1.3737600410        1.5688771235        0.0521191716
 H         -0.4868861909        1.2324832803       -0.4617864691
 N          0.0220837844        3.0410240380        1.3343406750
 S          1.3571253912        2.0227570548        1.3019546952
 O          1.0005661979        0.6411671863        1.5198437781
 O          2.2709008495        2.6063611240        2.2632512021
 C          2.0202245790        2.2746693864       -0.3308026936
 C          2.5501304623        3.5167464323       -0.6236487616
 C          3.0551382376        3.7486489924       -1.8923087632
 C          3.0189927572        2.7412626858       -2.8454611913
 C          2.4873063126        1.4995425099       -2.5355070522
 C          1.9854224710        1.2611651311       -1.2655535028
 H          1.5618050319        0.3055814729       -0.9974588690
 H          2.4448467983        0.7126047428       -3.2722151403
 H          3.4070304823        2.9226155654       -3.8353370266
 H          3.4715409281        4.7126517894       -2.1362743115
 H          2.5640811057        4.2682546356        0.1479460470
 H          0.0504331421        3.6659254671        2.1266547414
 H         -2.3101584112        3.7532990173        2.4488577866
 H         -4.5010790352        2.7830721910        1.8670479411
 H         -4.6840639327        0.9777724277        0.2674973808
 H         -1.9225391355        0.1540962886       -2.0684679831
 C         -3.6750379413       -0.9595556797       -1.7278224038
 C         -4.8647154010       -1.3814599439       -0.9237899035
 C         -5.0167792896       -0.3525061508       -2.0061375216
 H         -5.5209510061       -0.6512284780       -2.9134923984
 H         -5.1844646825        0.6773759158       -1.7381290482
 H         -5.2637278378       -2.3701449439       -1.1011299572
 H         -4.9006812356       -1.0905388218        0.1134412575
 H         -3.3314303458       -1.6865129544       -2.4610256654
