  62
        -98.93620223
 C         -1.2485652759       -0.9519497475        0.3920637285
 C         -1.8188843625       -0.6546932566       -0.8676016732
 C         -2.7241593952        0.5101348743       -0.9133690792
 C         -2.9359092000        1.2217507615        0.2073718409
 C         -3.8446250794        2.4071815612        0.3815280211
 C         -5.2287349577        1.9610241974        0.8821784282
 C         -6.2166528324        1.5735424813       -0.2173453301
 H         -7.0997875476        1.1557492765        0.2714350065
 H         -6.5326452185        2.4735223749       -0.7492495622
 C         -5.6950843188        0.5598736681       -1.2393856228
 H         -5.1450483914       -0.2312449381       -0.7265751434
 H         -6.5582420307        0.0940090967       -1.7188024044
 C         -4.8098318368        1.1947641115       -2.3222815505
 H         -5.1696699392        0.8903147704       -3.3073710244
 H         -4.9150300699        2.2787977024       -2.2776862351
 C         -3.3219791334        0.8175366023       -2.2592323789
 H         -3.1504001715       -0.0878782772       -2.8503005224
 H         -2.7330375053        1.6115821574       -2.7316281646
 H         -5.0834235540        1.1167926964        1.5609771044
 H         -5.6707521528        2.7738399914        1.4619439779
 H         -3.3876932410        3.0408622887        1.1445071666
 H         -3.9240528019        2.9728590463       -0.5421126066
 O         -2.3577589341        0.9050404309        1.3982873945
 C         -1.5143591077       -0.1842585568        1.5259011667
 O         -1.0680101243       -0.3602765496        2.6755455911
 O         -1.5836457898       -1.3198253356       -1.9106921847
 C         -0.2953612979       -2.1171858491        0.5527833840
 C          0.9665087670       -1.9461065703       -0.2615615560
 C          1.8162388616       -3.0206536660       -0.5070999739
 C          3.0057451676       -2.8434965788       -1.1912888930
 C          3.3752726021       -1.5934004650       -1.6573162228
 C          2.5271772832       -0.5206632280       -1.4333435713
 C          1.3451722622       -0.6967562163       -0.7291365895
 H          0.7063603934        0.1580615549       -0.5448516186
 N          2.9098745918        0.7708794913       -1.8828033206
 S          3.9663180146        1.5337049681       -0.8261414028
 O          4.0682351343        2.9030210236       -1.2768994393
 O          5.1903573578        0.7766909926       -0.7852869676
 C          3.1352173736        1.4551192459        0.7493974152
 C          3.3191225268        0.3450187092        1.5489936665
 C          2.5729571254        0.2267960051        2.7103222270
 C          1.6548263984        1.2090210511        3.0473819894
 C          1.4829554935        2.3181780309        2.2334335635
 C          2.2236442856        2.4415592331        1.0691197770
 H          2.1159298407        3.2873413858        0.4078861437
 H          0.7623754795        3.0762630536        2.4970033230
 H          1.0551830382        1.0992459083        3.9366058821
 H          2.6959626271       -0.6374446254        3.3427904471
 H          4.0376920584       -0.4008362356        1.2494760348
 H          2.1157120457        1.3787986804       -2.0314434943
 H          4.3044718477       -1.4300151787       -2.1779265699
 H          3.6541847043       -3.6886394251       -1.3641761347
 H          1.5437737833       -4.0017505341       -0.1525945350
 H         -0.0028940341       -2.1195293366        1.6139312948
 C         -0.9977253106       -3.4270533442        0.2415123684
 C         -0.7301214492       -4.6541599261        1.0587135540
 C         -2.0362011025       -3.9333166288        1.1959644115
 H         -2.9284380972       -4.3901590120        0.7949650216
 H         -2.2076004045       -3.3535791571        2.0917699436
 H         -0.7252413443       -5.6125247989        0.5615100101
 H         -0.0278173977       -4.5739755868        1.8749263939
 H         -1.1925008569       -3.5508459619       -0.8173363797
