  62
        -98.93949917
 C         -2.2784946093       -0.8794069517        0.6334264506
 C         -3.4241508594       -0.9033657119       -0.1996786392
 C         -4.4586507898        0.0996208776        0.0993909012
 C         -4.2704746401        0.9711224473        1.1057247115
 C         -5.2169224505        2.0751368168        1.4769018319
 C         -4.8784587911        3.3745484572        0.7330159423
 C         -4.6871189012        3.1928544878       -0.7727803178
 H         -4.4837748617        4.1792068780       -1.1954582275
 H         -3.7991490610        2.5803794682       -0.9470659381
 C         -5.8872746411        2.5640889475       -1.4944300678
 H         -6.7788190310        2.6474247269       -0.8719080077
 H         -6.0777840514        3.1261703777       -2.4110483276
 C         -5.6875040505        1.1030067277       -1.9008231783
 H         -4.7448301105        0.9994652683       -2.4439003585
 H         -6.4930993504        0.8279193776       -2.5866741183
 C         -5.6966436599        0.0852295273       -0.7534969686
 H         -6.5874490799        0.2306117468       -0.1393756785
 H         -5.7427385095       -0.9136243425       -1.1966612090
 H         -5.6778520014        4.0948983768        0.9162425826
 H         -3.9529804513        3.7801416975        1.1487549723
 H         -6.2344315504        1.7663024865        1.2451396720
 H         -5.1350641204        2.2498821565        2.5510367220
 O         -3.1569323400        0.9687093276        1.8832406413
 C         -2.1448259496        0.0499731881        1.6700506809
 O         -1.1906934596        0.1520620882        2.4694001508
 O         -3.6024717592       -1.7123906916       -1.1479254795
 C         -1.1184410990       -1.8517993011        0.4842089002
 C         -0.1804919893       -1.4303348004       -0.6222566598
 C         -0.5863947294       -1.4028946101       -1.9525593097
 C          0.2975621003       -1.0176050594       -2.9434423697
 C          1.5962427902       -0.6570680690       -2.6310751597
 C          2.0145217703       -0.6884720692       -1.3055065498
 C          1.1241315206       -1.0725595599       -0.3125158398
 H          1.4524097207       -1.0731399801        0.7162810201
 N          3.3452599103       -0.3766548088       -0.9756415099
 S          3.6903798101        0.3851759609        0.4899654103
 O          3.6051297606       -0.5859842595        1.5512158100
 O          2.8870162096        1.5792893905        0.6335290808
 C          5.3993328399        0.8135646717        0.2132299703
 C          5.7361605293        2.1099882620       -0.1260044493
 C          7.0671953591        2.4164955126       -0.3635289494
 C          8.0325183996        1.4262742430       -0.2617884298
 C          7.6791623402        0.1292380327        0.0804348598
 C          6.3509342503       -0.1833169479        0.3212905398
 H          6.0299843308       -1.1734792781        0.5995250096
 H          8.4326721705       -0.6374846870        0.1612263795
 H          9.0672062194        1.6674349235       -0.4475873399
 H          7.3451600787        3.4245062328       -0.6260726591
 H          4.9521797990        2.8478082817       -0.1864997990
 H          3.8363085600        0.0723608217       -1.7373940198
 H          2.2840213600       -0.3568975684       -3.4071304697
 H         -0.0297756898       -0.9938519392       -3.9720087297
 H         -1.6026418493       -1.6704881705       -2.1969900797
 H         -0.5595103789       -1.7876022612        1.4284351301
 C         -1.5639303284       -3.2891918412        0.2920835598
 C         -0.6057905179       -4.3907132309        0.6262846093
 C         -1.8026084979       -4.1478113217        1.4953573695
 H         -2.6152652776       -4.8580069321        1.4680641894
 H         -1.6454654479       -3.7007505120        2.4667529497
 H         -0.5942095676       -5.2705574207        0.0016784090
 H          0.3640134621       -4.1086977207        1.0093000893
 H         -2.2197594584       -3.4281326212       -0.5566736802
