  62
        -98.94066326
 C          1.7429805300        0.3696324095        0.4418247805
 C          2.9198296498        0.5254079694        1.2179128608
 C          4.1648272900        0.7346565695        0.4712025612
 C          4.1384624904        0.7570521898       -0.8735502888
 C          5.3196907706        0.9788898500       -1.7788557384
 C          6.1372663408       -0.2893437999       -2.0599896684
 C          6.9856628104       -0.7896269401       -0.8901207983
 H          7.6668738406       -1.5444417600       -1.2880360983
 H          7.5955520103        0.0296308499       -0.5080779680
 C          6.1777423001       -1.4111930703        0.2577173913
 H          5.1729863902       -1.6555246503       -0.0951246290
 H          6.6447131801       -2.3494982404        0.5657882313
 C          6.0647817298       -0.5315696006        1.5029605115
 H          5.4425395496       -1.0521721308        2.2355362412
 H          7.0545203596       -0.3901212107        1.9428181218
 C          5.4419144898        0.8471855394        1.2478570816
 H          6.1503506599        1.4890639096        0.7245511619
 H          5.2053924495        1.2997818492        2.2140290816
 H          5.4555258309       -1.0806323998       -2.3803682888
 H          6.8049245410       -0.0677165997       -2.8957642782
 H          4.9202562109        1.3473549602       -2.7261231984
 H          5.9691469905        1.7445831800       -1.3535810281
 O          2.9924441606        0.5893471199       -1.5832156491
 C          1.7726007704        0.3678279298       -0.9537862095
 O          0.8263029206        0.1926766499       -1.7426354998
 O          2.9283743994        0.4871804191        2.4772510908
 C          0.4413039298        0.1259431793        1.1831477800
 C         -0.3011049400       -1.0388811606        0.5781876796
 C          0.3576762701       -2.2597794906        0.4486847895
 C         -0.2771083897       -3.3510816105       -0.1090344309
 C         -1.5950677196       -3.2594234504       -0.5232721612
 C         -2.2659618697       -2.0524790305       -0.3852526312
 C         -1.6163715899       -0.9503571606        0.1539045192
 H         -2.1504072899       -0.0183619006        0.2242412793
 N         -3.6035707296       -1.9148275404       -0.7890368215
 S         -4.6690560299       -1.1213584307        0.2296702083
 O         -4.3165331803       -1.3139169710        1.6175519684
 O         -5.9781291897       -1.5988337106       -0.1635192921
 C         -4.5381910598        0.6003363694       -0.2019865713
 C         -4.4859672701        1.5441526992        0.8046350089
 C         -4.4332079501        2.8866011593        0.4637270292
 C         -4.4354891997        3.2593098396       -0.8718927107
 C         -4.4880858594        2.2986283298       -1.8705856409
 C         -4.5435652894        0.9550872897       -1.5362333612
 H         -4.5848176392        0.1821229198       -2.2852369914
 H         -4.4848901991        2.5928426900       -2.9077103508
 H         -4.3918307297        4.3044604996       -1.1352506105
 H         -4.3883676803        3.6346474491        1.2393953194
 H         -4.4769540704        1.2088201190        1.8296203289
 H         -4.0166933594       -2.7498402904       -1.1785401718
 H         -2.0961145994       -4.1136209404       -0.9533587716
 H          0.2527331904       -4.2861349804       -0.2145246009
 H          1.3842516100       -2.3366972806        0.7817901898
 H          0.7586927695       -0.1724925209        2.1973700501
 C         -0.4244146303        1.3660811592        1.3504193200
 C          0.1740508397        2.7399123392        1.3335964905
 C         -0.7126907300        2.2959470594        0.2111003002
 H         -1.7020865000        2.7230170394        0.1371654400
 H         -0.2639536497        2.0659020497       -0.7420420498
 H         -0.2041470805        3.4706084791        2.0325078205
 H          1.2349358797        2.8221582693        1.1466841508
 H         -1.2296537605        1.2027041990        2.0612229898
