  62
        -98.94622528
 C         -1.8062169102       -1.3003216386       -0.0705661108
 C         -2.8050898297       -0.6638792189        0.7018452100
 C         -3.3188407392        0.6050610818        0.1674682213
 C         -2.8260684292        1.0781413927       -0.9920861284
 C         -3.1983835187        2.3967397934       -1.6058224771
 C         -2.2625319181        3.5169848226       -1.1278723062
 C         -2.0578085479        3.5458355310        0.3866366838
 H         -1.5448223982        2.6314539105        0.6961202529
 H         -1.3880719374        4.3793704505        0.6110924545
 C         -3.3536070776        3.6964621809        1.1963249342
 H         -3.1945824172        4.4436793601        1.9767974148
 H         -4.1511255976        4.0667977519        0.5512039047
 C         -3.8206675681        2.4164809204        1.8920654731
 H         -2.9983571082        1.9956471795        2.4771812425
 H         -4.6155632979        2.6821952002        2.5940197034
 C         -4.3691977188        1.3188910916        0.9710834621
 H         -4.8327364290        0.5568864912        1.6046651615
 H         -5.1380942687        1.7370641025        0.3185984626
 H         -1.2862919283        3.3867750726       -1.6002403965
 H         -2.6710776277        4.4738920831       -1.4572878552
 H         -3.1209148989        2.3074368644       -2.6905754172
 H         -4.2275344486        2.6354652037       -1.3449353267
 O         -1.8811656096        0.4276372629       -1.7165505291
 C         -1.3341131601       -0.7690610077       -1.2718812803
 O         -0.4607170905       -1.2438713274       -2.0174543709
 O         -3.2347052598       -1.1242081597        1.7949910196
 C         -1.1630313506       -2.5728465694        0.4514139079
 C          0.3177001495       -2.3362309403        0.6251009179
 C          1.2990394290       -3.2001610203        0.1592834769
 C          2.6396893792       -2.8874006410        0.3123218270
 C          3.0306617898       -1.7133920818        0.9283797280
 C          2.0558914903       -0.8481364618        1.4091928890
 C          0.7164840801       -1.1676232910        1.2634272489
 H         -0.0393407695       -0.4870268410        1.6370082197
 N          2.4397302310        0.3633752975        2.0181855901
 S          3.4658116113        1.3412289078        1.1211401508
 O          4.8210197811        0.8778920471        1.2843186502
 O          3.2012706020        2.6882070975        1.5766627421
 C          2.9545103309        1.1346100796       -0.5743400193
 C          3.7837885804        0.4843256601       -1.4642538000
 C          3.3506629801        0.2953240115       -2.7666174401
 C          2.1021963503        0.7553328225       -3.1525873695
 C          1.2818429407        1.4098557220       -2.2474943987
 C          1.7077032510        1.5991723706       -0.9439054486
 H          1.0919823314        2.1041824102       -0.2149215281
 H          0.3043062608        1.7488186827       -2.5509158683
 H          1.7571880300        0.5979418936       -4.1619458896
 H          3.9839418898       -0.2158454781       -3.4737060407
 H          4.7466731703        0.1422123293       -1.1216748105
 H          1.6569207013        0.9034007675        2.3581417007
 H          4.0690624300       -1.4476164024        1.0425923181
 H          3.3912546488       -3.5654072110       -0.0619173138
 H          1.0156224885       -4.1140344297       -0.3359083939
 H         -1.6065860806       -2.7435283602        1.4437086379
 C         -1.4922476213       -3.7517630284       -0.4385936431
 C         -1.5300819319       -5.1380642490        0.1299428156
 C         -2.8046062116       -4.4512743580       -0.2559845135
 H         -3.3331817319       -4.7946242069       -1.1325498838
 H         -3.4526454313       -4.0922430484        0.5303800769
 H         -1.1854436524       -5.9568958785       -0.4833474252
 H         -1.3156379218       -5.2539451300        1.1816225255
 H         -1.1306143214       -3.6213704377       -1.4521303930
