  62
        -98.93373850
 C          2.1461115879        1.1015944505       -0.4366958143
 C          3.2014959666        0.6765583807        0.4077954555
 C          3.8425343613       -0.6170713353        0.1087597228
 C          3.3895096729       -1.3293587254       -0.9392572608
 C          3.8405722410       -2.6847702643       -1.4170915844
 C          3.3286062215       -3.8274121835       -0.5271864703
 C          3.4840429377       -3.5903206242        0.9724497323
 H          2.9334875688       -2.6893467816        1.2497081200
 H          3.0120454499       -4.4293957732        1.4904373484
 C          4.9240375002       -3.4829856231        1.4693772610
 H          4.8853860025       -3.4360043093        2.5605406332
 H          5.4662707408       -4.3903441410        1.1949039944
 C          5.7158543858       -2.2705299167        0.9730521135
 H          6.0821051336       -2.4238650775       -0.0385433679
 H          6.5987707319       -2.1750269812        1.6115960566
 C          4.9670277580       -0.9448510739        1.0618359319
 H          5.6889142882       -0.1268269679        0.9514389018
 H          4.5553642090       -0.8288362587        2.0708080587
 H          3.8499320045       -4.7435976954       -0.8104101756
 H          2.2641004566       -3.9649032447       -0.7344931835
 H          3.4280303137       -2.8141629714       -2.4202736551
 H          4.9232704800       -2.7132658524       -1.4971840292
 O          2.3713103957       -0.8837531840       -1.7286559780
 C          1.7235622316        0.3217460624       -1.5135272649
 O          0.8300982984        0.5594950419       -2.3506206565
 O          3.6066562096        1.3620755243        1.3866300750
 C          1.5082734862        2.4334603480       -0.0902005870
 C          0.3251099763        2.2702232072        0.8359727620
 C          0.1844945049        3.0954663534        1.9458698569
 C         -0.9167538989        2.9791393111        2.7744751151
 C         -1.8979810352        2.0427546630        2.5082801185
 C         -1.7607588808        1.2020420716        1.4077463331
 C         -0.6536003430        1.3203935569        0.5795893988
 H         -0.5655848945        0.6699717351       -0.2777355722
 N         -2.7228620224        0.2133344803        1.1551078600
 S         -2.9756529889       -0.3441260905       -0.4171708500
 O         -1.9969557562       -1.3613545500       -0.7074344041
 O         -3.0689173816        0.7699222454       -1.3324533128
 C         -4.5826543389       -1.0940546911       -0.2182954643
 C         -4.6666444472       -2.3955877475        0.2384422836
 C         -5.9180932454       -2.9625580933        0.4215212653
 C         -7.0588604930       -2.2228363751        0.1474663621
 C         -6.9594870127       -0.9184513902       -0.3129606021
 C         -5.7109535228       -0.3456642015       -0.4973275207
 H         -5.5837919173        0.6603219692       -0.8637746539
 H         -7.8475591657       -0.3468713570       -0.5294079516
 H         -8.0312956406       -2.6668022262        0.2902399041
 H         -5.9986648084       -3.9776258396        0.7755668585
 H         -3.7522588311       -2.9332650292        0.4285769831
 H         -3.5903842343        0.3641997763        1.6511001484
 H         -2.7602281735        1.9513159756        3.1508213648
 H         -1.0146864718        3.6261390200        3.6327538978
 H          0.9514290799        3.8243083748        2.1612669115
 H          2.2821190983        2.9905532937        0.4572970066
 C          1.0881126805        3.2550982429       -1.2935525213
 C          1.0561887599        4.7491832123       -1.1863331488
 C          2.1089746495        4.0791494718       -2.0163332298
 H          2.0460250872        4.1446457500       -3.0919616096
 H          3.1209828578        4.0601829748       -1.6385355628
 H          0.2647608207        5.2814407030       -1.6910837674
 H          1.3588840538        5.1927183794       -0.2501114486
 H          0.3212224364        2.7755291961       -1.8892535109
