  62
        -98.94788700
 C         -1.9501079908       -0.5607083198        0.5675350807
 C         -1.2900812611        0.4707920706        1.2794719104
 C         -1.7020855714        1.8427313004        0.9604748198
 C         -2.6376110312        2.0451036398        0.0156383595
 C         -3.1484485713        3.3890489595       -0.4160756412
 C         -2.3682890212        3.9349471192       -1.6187530913
 C         -0.8495588012        3.8872585696       -1.4495954509
 H         -0.5125146310        2.8471793096       -1.4481199504
 H         -0.4101494311        4.3572210193       -2.3330151410
 C         -0.3259903816        4.5869525302       -0.1876586911
 H         -1.0760300819        5.2813854802        0.1938394085
 H          0.5540137483        5.1745192703       -0.4587885011
 C          0.1035319483        3.6290317608        0.9254301294
 H          0.7251611186        2.8412493907        0.4922258999
 H          0.7143525180        4.1861993112        1.6411613894
 C         -1.0324723218        2.9595314709        1.7093630795
 H         -0.5987135119        2.5033833413        2.6039867198
 H         -1.7604451120        3.7108519209        2.0230191890
 H         -2.6830715513        4.9661234091       -1.7924752218
 H         -2.6312014108        3.3457210288       -2.5003398111
 H         -4.1976313513        3.2798946992       -0.6973513114
 H         -3.0774689517        4.0818500099        0.4202739085
 O         -3.2160618508        1.0337541694       -0.6799576903
 C         -2.8625021106       -0.2885193204       -0.4510498396
 O         -3.4353745702       -1.1030190509       -1.2004544094
 H          0.7433017994       -0.9749176794        0.0961401815
 C          0.4598592698       -1.7732941398       -0.5731288182
 C         -0.7191952802       -2.4680060199       -0.3290599682
 C         -1.0799835297       -3.4943249804       -1.1903856478
 C         -0.2877011794       -3.7893375107       -2.2877048275
 C          0.8633189705       -3.0695069505       -2.5503582175
 C          1.2395153001       -2.0487601101       -1.6825991679
 N          2.4157672400       -1.3153853199       -1.8907504179
 S          2.5740293195        0.2474307203       -1.3230618085
 O          1.3295525494        0.9792780701       -1.3837652091
 O          3.6605305496        0.8046627902       -2.1039674685
 C          3.1275739692        0.0791032012        0.3627065717
 C          3.4913167193       -1.1496838985        0.8745116223
 C          3.9404801590       -1.2219635279        2.1839920924
 C          4.0233311386       -0.0735291576        2.9548011120
 C          3.6637295784        1.1547048621        2.4232780513
 C          3.2148834987        1.2331323815        1.1152607812
 H          2.9259608786        2.1700452512        0.6658742107
 H          3.7266842681        2.0495602124        3.0213872110
 H          4.3678237483       -0.1351008771        3.9750942821
 H          4.2200661491       -2.1772534877        2.5986925129
 H          3.4098683896       -2.0299966288        0.2587455826
 H          2.8782801602       -1.4591337102       -2.7752934977
 H          1.4658190508       -3.2892072808       -3.4184419173
 H         -0.5801713791       -4.5836016510       -2.9578092672
 H         -1.9874114697       -4.0483402705       -1.0162830278
 C         -1.5472215005       -2.0017536496        0.8421461414
 H         -0.8909533508       -1.9549822191        1.7232039116
 C         -2.7346903204       -2.8814398197        1.1603290715
 C         -2.5240542503       -4.1654514894        1.9042728021
 C         -3.1876066707       -3.0063194292        2.5831916615
 H         -4.2473416408       -3.0605146993        2.7822402312
 H         -2.6304033010       -2.4641193988        3.3331202514
 H         -1.5144123604       -4.4123159390        2.1952717825
 H         -3.1286956101       -5.0196012396        1.6402630923
 H         -3.5012037703       -2.8519746102        0.3954951513
 O         -0.4061733413        0.2512554612        2.1518612908
