  62
        -98.93516247
 C         -1.9438475881       -0.7044850678        0.6901445314
 C         -3.3406153435       -0.8368051842        0.9391810506
 C         -4.1666246636        0.3651689656        0.7714390182
 C         -3.5644365200        1.5417754038        0.5285712103
 C         -4.2734193577        2.8375633325        0.2671446556
 C         -4.5423089012        3.0304679931       -1.2320653656
 C         -5.1780748896        1.8156465274       -1.9084959653
 H         -5.3491353816        2.0786250762       -2.9547016863
 H         -4.4656725062        0.9875211889       -1.8981735682
 C         -6.4982189020        1.3547620943       -1.2747400727
 H         -6.9105390202        2.1523468462       -0.6556818159
 H         -7.2190098191        1.1577871207       -2.0711495333
 C         -6.3896913447        0.0741933022       -0.4445736040
 H         -7.4019618332       -0.2775222863       -0.2282098463
 H         -5.8929454666       -0.7017669818       -1.0326847626
 C         -5.6558435166        0.2098601852        0.8954487442
 H         -5.8150786581       -0.7137813128        1.4595744124
 H         -6.0824843742        1.0374990390        1.4658367958
 H         -5.1911707363        3.8992544582       -1.3570864226
 H         -3.5933018075        3.2420568887       -1.7304605161
 H         -3.6429859154        3.6540133714        0.6232579382
 H         -5.2117234781        2.8488442052        0.8186888788
 O         -2.2181895304        1.6651608191        0.4726733856
 C         -1.3702856291        0.5653358441        0.5815880975
 O         -0.1693386113        0.8961782493        0.5846091854
 O         -3.8801951131       -1.9178797288        1.2969664425
 C         -1.1211630317       -1.9904364162        0.7721403913
 C          0.3632638979       -1.8491103007        0.5997506195
 C          1.2326120808       -2.4052803478        1.5310607453
 C          2.6034996655       -2.3439121057        1.3490823227
 C          3.1371007487       -1.7005058448        0.2477816027
 C          2.2774539023       -1.1147579942       -0.6728911198
 C          0.9033910110       -1.2205701713       -0.5129473670
 H          0.2514619333       -0.7573483494       -1.2395049389
 N          2.7986486822       -0.4061680929       -1.7668605716
 S          4.2097986153        0.4653047722       -1.5816693556
 O          4.1159351795        1.5384861543       -2.5487886704
 O          5.3373595802       -0.4206481744       -1.7538513807
 C          4.2520702168        1.1380503246        0.0743809180
 C          3.1040755139        1.6182438684        0.6717719269
 C          3.1958286183        2.1638346393        1.9434510740
 C          4.4200496440        2.2306484121        2.5889947915
 C          5.5640263809        1.7474392292        1.9725295508
 C          5.4802223119        1.1950079398        0.7052751237
 H          6.3412239485        0.7966059735        0.1931067506
 H          6.5168568973        1.7965586458        2.4745785928
 H          4.4808726136        2.6576137078        3.5777007874
 H          2.2977039939        2.5249040350        2.4187746437
 H          2.1449865480        1.5477218072        0.1839177972
 H          2.1078102804        0.1291239010       -2.2714344658
 H          4.2020552250       -1.6383639280        0.0902018863
 H          3.2632795281       -2.7920900501        2.0759224263
 H          0.8268457039       -2.8906251008        2.4071048662
 H         -1.3121203640       -2.4007021846        1.7786661802
 C         -1.6692451835       -3.0485148686       -0.1951479101
 C         -1.1042998504       -3.3675095435       -1.5436773776
 C         -0.9437525964       -4.3413100577       -0.4159428673
 H         -1.5149923261       -5.2571272885       -0.4312809390
 H          0.0426436689       -4.4424876621        0.0117571593
 H         -1.8031565820       -3.6029821865       -2.3334006177
 H         -0.2199156766       -2.8535567448       -1.8848147629
 H         -2.7454669877       -3.1271677433       -0.1056311661
