  62
        -98.93746701
 C          2.2820204125       -0.4842321576        0.3197967298
 C          3.5335190077       -0.8824388454        0.8565444054
 C          4.7070273399       -0.6396727249        0.0109306398
 C          4.5436746540       -0.1259064276       -1.2212613988
 C          5.6382559110        0.1632467441       -2.2123001628
 C          6.3246875224        1.5200906334       -2.0029965216
 C          7.2474260787        1.6018075255       -0.7862058668
 H          7.8243415728        2.5235797148       -0.8835781267
 H          7.9537040480        0.7714385941       -0.8108314593
 C          6.5166877633        1.6184061457        0.5638398710
 H          5.4651051766        1.8698824109        0.4056831787
 H          6.9392357129        2.4012554005        1.1977786831
 C          6.6005946837        0.3076553268        1.3464213178
 H          6.0194070218        0.4192304764        2.2656186344
 H          7.6383370580        0.1140520875        1.6264314062
 C          6.0617775328       -0.9140580102        0.5904568410
 H          5.9588168723       -1.7389475338        1.2996086995
 H          6.7587882357       -1.2097773636       -0.1931580022
 H          5.5557550116        2.2927594169       -1.9297762104
 H          6.9182400924        1.7260039283       -2.8966830615
 H          5.1713907891        0.1616733552       -3.1995189454
 H          6.3832586099       -0.6321091230       -2.1780991660
 O          3.3201256895        0.1769792330       -1.7285266555
 C          2.1616107713        0.0271492740       -0.9732166652
 O          1.1272209708        0.3710166487       -1.5741852059
 O          3.6620469087       -1.4211511092        1.9880562051
 C          1.0549714767       -0.6805551370        1.1906606360
 C         -0.0682995323       -1.3041481539        0.4027940039
 C          0.1008568334       -2.5922757651       -0.0995738649
 C         -0.9021186820       -3.2057236198       -0.8238859533
 C         -2.1035900968       -2.5559952341       -1.0465720355
 C         -2.2792490185       -1.2679421066       -0.5564713098
 C         -1.2646903832       -0.6497800485        0.1611579829
 H         -1.4223801757        0.3568815882        0.5104973829
 N         -3.4749280272       -0.5699250420       -0.7876259752
 S         -4.0439195279        0.4690326311        0.4129855490
 O         -3.4276890383        1.7623653220        0.2570570076
 O         -3.9021364450       -0.1519193819        1.7114257737
 C         -5.7672221495        0.5672377835       -0.0375373799
 C         -6.6779683100       -0.2674785615        0.5824323021
 C         -8.0097042627       -0.2065317150        0.2030837077
 C         -8.4056478582        0.6809003108       -0.7863101960
 C         -7.4803067836        1.5130695954       -1.3988679756
 C         -6.1473960951        1.4581103524       -1.0235558576
 H         -5.3941295538        2.0903241089       -1.4643436996
 H         -7.7920537254        2.2038628112       -2.1655972854
 H         -9.4423987826        0.7263401195       -1.0801901232
 H         -8.7319725823       -0.8494986883        0.6797125329
 H         -6.3258270139       -0.9345529870        1.3527555848
 H         -4.2092236313       -1.1531122824       -1.1643457366
 H         -2.8915944091       -3.0362308918       -1.6067660704
 H         -0.7532331035       -4.2028100039       -1.2106042876
 H          1.0374736802       -3.1028145652        0.0811098533
 H          1.3757095060       -1.4106595907        1.9537298169
 C          0.6252035973        0.5693086825        1.9442874755
 C          1.6268082133        1.5937101225        2.3835148459
 C          0.6324250150        1.9284620416        1.3144977638
 H         -0.1784530393        2.6031993241        1.5497400285
 H          0.9737080688        2.0045187744        0.2937243660
 H          1.5087057998        2.0430489430        3.3579969551
 H          2.6562109384        1.4419920907        2.0927022577
 H         -0.1881075633        0.3633957286        2.6353074802
