  62
        -98.93418625
 C          1.9943462603        0.0247692695       -0.4689018493
 C          2.7982433302       -0.6055352703        0.5105826508
 C          4.1438417003       -0.0309946904        0.7160213106
 C          4.5132566103        1.0553577295        0.0179260604
 C          5.8427599804        1.7565905694        0.0515306503
 C          6.7630002503        1.2276328892       -1.0615142197
 C          7.5826686702       -0.0066993108       -0.6868933895
 H          8.0798175502       -0.3544800010       -1.5954489094
 H          8.3617930003        0.2822571493        0.0216853604
 C          6.7840152902       -1.1675900607       -0.0880091793
 H          5.8566861302       -1.3036963407       -0.6473333392
 H          7.3734711601       -2.0779622707       -0.2136130891
 C          6.4730990703       -0.9805206404        1.4045013007
 H          7.0851666303       -0.1674053004        1.7947512306
 H          6.7696672102       -1.8791614503        1.9493651108
 C          4.9965016003       -0.7237134703        1.7439868707
 H          4.4925839002       -1.6787563902        1.9227488109
 H          4.9392046703       -0.1609600601        2.6816479006
 H          7.4572420903        2.0199637291       -1.3488167798
 H          6.1410988903        1.0071299891       -1.9330578896
 H          6.3077032004        1.6551317696        1.0277087903
 H          5.6425072804        2.8137583194       -0.1354464199
 O          3.6953651103        1.6520774994       -0.8930562697
 C          2.4359810703        1.1547612194       -1.1620038995
 O          1.8072028703        1.7913313293       -2.0324940596
 O          2.4359453602       -1.6010315302        1.1874469609
 C          0.5965079702       -0.4484634704       -0.8323784692
 C         -0.4323686597        0.1905785898        0.0635842607
 C         -0.3219369197        0.1272040300        1.4491686307
 C         -1.2818987896        0.7088239602        2.2572867407
 C         -2.3711270996        1.3594099602        1.7036855106
 C         -2.4915366996        1.4254394599        0.3225262306
 C         -1.5254269897        0.8428528597       -0.4875723694
 H         -1.6168138697        0.9119801196       -1.5633072194
 N         -3.6172015596        2.0619493499       -0.2422190895
 S         -5.0990861797        1.3658995500        0.1284033607
 O         -6.0236221197        1.8723392399       -0.8596633294
 O         -5.4190506196        1.6410299203        1.5053139206
 C         -4.8241676298       -0.3801488500       -0.1057959591
 C         -4.9377258498       -0.8979244502       -1.3809551890
 C         -4.6363619699       -2.2337166403       -1.5915260688
 C         -4.2142923899       -3.0210071501       -0.5308832586
 C         -4.1049733599       -2.4858915199        0.7430424513
 C         -4.4121873198       -1.1524974899        0.9618059711
 H         -4.3437400197       -0.7012522697        1.9378092610
 H         -3.7749739299       -3.1010176598        1.5644784414
 H         -3.9659949500       -4.0567798802       -0.6982043385
 H         -4.7227230100       -2.6539722304       -2.5807535587
 H         -5.2707649998       -0.2520095203       -2.1778100591
 H         -3.5419957496        2.1872361497       -1.2420544595
 H         -3.1339654796        1.8090593503        2.3186838805
 H         -1.1820164796        0.6547169004        3.3308720207
 H          0.5207257603       -0.3890847500        1.8830137608
 H          0.4263618202       -0.0683018406       -1.8521036493
 C          0.4678725101       -1.9656340304       -0.8885361190
 C         -0.3870364599       -2.7622265702        0.0464466612
 C         -0.8099767199       -2.5810038305       -1.3779840888
 H         -0.7544996000       -3.4231366206       -2.0505272287
 H         -1.6387689399       -1.9151768404       -1.5683876189
 H         -0.0133734599       -3.7239872002        0.3620929214
 H         -0.9384696698       -2.2368247701        0.8098391311
 H          1.3893298701       -2.4368165605       -1.2136750089
