  62
        -98.94033158
 C         -2.1639670294        1.2556486217        0.0933387030
 C         -2.4485112647        0.0437248338        0.7710240626
 C         -3.8412610651       -0.4275680762        0.6827231033
 C         -4.7458247672        0.2913533602       -0.0044799119
 C         -6.1788553603       -0.1014418742       -0.2141142970
 C         -6.3471519846       -0.9159541766       -1.5043635369
 C         -5.3511297504       -2.0674838839       -1.6427702191
 H         -4.3436797358       -1.6585240614       -1.7495876077
 H         -5.5853885974       -2.5898933968       -2.5728499273
 C         -5.3692274139       -3.0664059651       -0.4773301239
 H         -5.3482530178       -4.0795668496       -0.8843892434
 H         -6.2979218830       -2.9629606888        0.0851717749
 C         -4.1815702450       -2.9473297999        0.4797802715
 H         -3.2481177616       -2.9578282678       -0.0891848977
 H         -4.1779938571       -3.8279568567        1.1278692933
 C         -4.1774032138       -1.7113052016        1.3880723120
 H         -3.3945549665       -1.8557706453        2.1386322241
 H         -5.1367225548       -1.6295890813        1.9034154381
 H         -6.2154162019       -0.2454762179       -2.3567692275
 H         -7.3654522656       -1.3078181632       -1.5348163889
 H         -6.7777372888        0.8079032979       -0.2885199416
 H         -6.5207643223       -0.6808217079        0.6412781559
 O         -4.4371158822        1.4507564192       -0.6391041433
 C         -3.1437518827        1.9453721814       -0.6272445509
 O         -2.9931394755        2.9926022157       -1.2873672455
 O         -1.6025083947       -0.6203008471        1.4229945145
 C         -0.7651226822        1.8504232116        0.0517020647
 C          0.2347919875        0.7738817726       -0.2890122862
 C          0.2473144476        0.2565660804       -1.5811525465
 C          1.1272318607       -0.7496181644       -1.9324222218
 C          2.0139996076       -1.2617115381       -1.0019275658
 C          2.0096278394       -0.7517395545        0.2894867549
 C          1.1339965725        0.2694168860        0.6365104141
 H          1.1247444615        0.6395290162        1.6496445530
 N          2.9028808224       -1.2709428591        1.2392372306
 S          4.4866377391       -1.5468664843        0.7887968561
 O          4.5828699630       -2.7855311915        0.0570476771
 O          5.2470438218       -1.4786962757        2.0169540131
 C          4.9055133110       -0.1808747010       -0.2805040131
 C          5.2233748589       -0.4100095097       -1.6033745647
 C          5.5106455053        0.6715022301       -2.4209917209
 C          5.4715977171        1.9570508507       -1.9046045803
 C          5.1538192310        2.1710746494       -0.5718387845
 C          4.8668469792        1.0936563539        0.2499165676
 H          4.6238838117        1.2242164376        1.2921682629
 H          5.1261289522        3.1722349709       -0.1724825528
 H          5.6911027406        2.7981209334       -2.5431612436
 H          5.7605442102        0.5080262310       -3.4569161550
 H          5.2419510676       -1.4253246111       -1.9646122229
 H          2.8327202679       -0.8484417385        2.1523681095
 H          2.6923964688       -2.0615200371       -1.2508272806
 H          1.1204092030       -1.1439953487       -2.9373064173
 H         -0.4540307324        0.6481957804       -2.3057498306
 H         -0.7897986899        2.5636682285       -0.7879093013
 C         -0.3842191436        2.6548328360        1.2856675746
 C         -1.4118266533        3.4667287600        2.0147477805
 C         -0.7983090853        2.2690979466        2.6727352915
 H         -0.0980408447        2.4337044447        3.4793101937
 H         -1.3979178135        1.3808388036        2.7920537134
 H         -1.1365160080        4.4488721988        2.3685300425
 H         -2.4349185180        3.3964163809        1.6746692632
 H          0.5976994761        3.1066031764        1.1800604110
