  62
        -98.94434112
 C         -2.0332165385       -0.8883632874        0.3200643637
 C         -2.3652516888        0.2731249970       -0.4186763184
 C         -3.6349736249        0.9188950645       -0.0576700210
 C         -4.3779969401        0.4333855339        0.9523894212
 C         -5.6745809254        1.0048050319        1.4580346811
 C         -6.9080594000        0.5516995105        0.6650086066
 C         -7.0486227412        1.1683856960       -0.7272324031
 H         -8.0557460195        0.9369223772       -1.0797055850
 H         -6.9720143350        2.2535933570       -0.6519305309
 C         -6.0342966907        0.6483102343       -1.7553436278
 H         -5.5921623895       -0.2821700444       -1.3919686549
 H         -6.5503776559        0.4139756095       -2.6891560670
 C         -4.9123957274        1.6304864545       -2.0925456967
 H         -4.2350723494        1.1464320603       -2.8006701729
 H         -5.3325218244        2.5136757622       -2.5790387296
 C         -4.0864790049        2.0866508145       -0.8825620059
 H         -3.1947860416        2.6011800710       -1.2492016840
 H         -4.6639477859        2.7820063357       -0.2737302322
 H         -6.8884397959       -0.5373469968        0.5811273521
 H         -7.7893954896        0.8238686716        1.2503238779
 H         -5.7831114909        0.6615049318        2.4891900504
 H         -5.6204291441        2.0939025444        1.4590040393
 O         -4.0071350097       -0.6621762015        1.6655433700
 C         -2.8508654180       -1.3554906098        1.3553856216
 O         -2.6572081491       -2.3629022831        2.0646059108
 O         -1.6580337273        0.7688459860       -1.3369006287
 C         -0.7767766640       -1.7092094953        0.0674634321
 C          0.4247881015       -1.0508336597        0.7026130655
 C          1.0479842315       -1.6255902622        1.8042319160
 C          2.1447722794       -1.0185046232        2.3909328093
 C          2.6446949938        0.1690384570        1.8882070353
 C          2.0296000732        0.7492247970        0.7857140783
 C          0.9324887929        0.1373860488        0.1964399266
 H          0.4453784239        0.6040145828       -0.6466711197
 N          2.5360966584        1.9504477747        0.2621931442
 S          4.1925837502        2.0688325832        0.0643326645
 O          4.8026626781        2.4560973876        1.3127294245
 O          4.3846374764        2.9849271170       -1.0382515125
 C          4.7319706510        0.4261943962       -0.3807506883
 C          4.1700373713       -0.1686333587       -1.4931543969
 C          4.5555767599       -1.4555175985       -1.8306101641
 C          5.4920353105       -2.1224027266       -1.0554973643
 C          6.0518072419       -1.5090729181        0.0541469976
 C          5.6677274842       -0.2228875003        0.3984476751
 H          6.0722804552        0.2893436057        1.2562578335
 H          6.7811985663       -2.0287938383        0.6542482106
 H          5.7860596280       -3.1259655520       -1.3194208643
 H          4.1208408589       -1.9344756713       -2.6931598985
 H          3.4456817408        0.3750452521       -2.0782995388
 H          2.0352779600        2.2840277169       -0.5482544592
 H          3.4908923044        0.6620828593        2.3389439420
 H          2.6148743689       -1.4734471848        3.2492768497
 H          0.6541842926       -2.5461108319        2.2100025664
 H         -0.9424530933       -2.6647986929        0.5820014077
 C         -0.5419543971       -1.9924985683       -1.4039489709
 C          0.3624241323       -3.1224938938       -1.7896517370
 C         -1.1157875555       -3.2363990127       -2.0094748239
 H         -1.4951248897       -3.1899876473       -3.0194284132
 H         -1.6798833942       -3.8931841626       -1.3629711363
 H          0.9999003222       -2.9995344920       -2.6514232487
 H          0.8028893621       -3.7039450080       -0.9941289638
 H         -0.5306627612       -1.1034482435       -2.0198742788
