  62
        -98.93627364
 C          2.0805203360        1.4359050215        0.1606102745
 C          1.7824311899        0.2812473160       -0.5997177892
 C          2.9076647055       -0.6349409523       -0.8534086541
 C          4.1315869389       -0.3232958525       -0.3933952181
 C          5.4183607047       -1.0889600265       -0.5723169661
 C          5.3687056144       -2.6100326302       -0.3641398141
 C          4.3366481159       -3.0945831226        0.6647340058
 H          4.8288127462       -3.7688235929        1.3681132931
 H          3.9536322574       -2.2490233875        1.2384716164
 C          3.1688628918       -3.8526565566        0.0285255647
 H          3.5649036667       -4.5277217608       -0.7332372716
 H          2.6924993484       -4.4685285697        0.7949578930
 C          2.0783404961       -2.9812922728       -0.5944850344
 H          1.5150012648       -2.4721574351        0.1926803350
 H          1.3826600482       -3.6401120979       -1.1202567246
 C          2.5693423919       -1.9060238190       -1.5774657277
 H          3.4049159846       -2.2660100573       -2.1729249920
 H          1.7421441585       -1.6611619757       -2.2496811334
 H          5.1754403713       -3.1013032101       -1.3168654184
 H          6.3674282779       -2.9177136252       -0.0499248256
 H          5.8043482524       -0.8771775370       -1.5735731400
 H          6.1151303868       -0.6437347906        0.1417227018
 O          4.3768802147        0.8165038246        0.3137069422
 C          3.3673490037        1.7117869500        0.6191880558
 O          3.7323469839        2.6932689602        1.2971543220
 H         -1.6910772681        2.6266285289       -0.2031072513
 C         -1.5023124711        1.9155287676        0.5863976172
 C         -0.2131480762        1.7088276715        1.0529961878
 C         -0.0210290283        0.7818439746        2.0748735319
 C         -1.0782111617        0.0549158860        2.5864612218
 C         -2.3564616195        0.2345221257        2.0855594382
 C         -2.5623462131        1.1740130894        1.0869337237
 N         -3.8756458922        1.3122398294        0.5509053108
 S         -4.0776333509        0.3756391694       -0.8438288573
 O         -3.2064692883        0.8371839113       -1.9039346633
 O         -5.4914583358        0.4328303834       -1.1505887470
 C         -3.6278219183       -1.2560361838       -0.3061971099
 C         -4.6143034395       -2.0605273392        0.2306169919
 C         -4.2744464042       -3.3236204537        0.6865240818
 C         -2.9586273300       -3.7538768601        0.6027062632
 C         -1.9818301859       -2.9315584681        0.0627438509
 C         -2.3121601924       -1.6663859830       -0.3983662381
 H         -1.5670787272       -1.0049164949       -0.8145409554
 H         -0.9570023885       -3.2611259662        0.0004702665
 H         -2.6907803037       -4.7359708518        0.9596680713
 H         -5.0320111041       -3.9655833828        1.1064595687
 H         -5.6219739331       -1.6804274826        0.2715673754
 H         -4.0874197503        2.2698772559        0.2988554520
 H         -3.1895123347       -0.3393871894        2.4572684124
 H         -0.9054504187       -0.6658530571        3.3708827842
 H          0.9818502693        0.6263703355        2.4501263183
 C          0.9817092760        2.4320294595        0.4839366470
 H          1.3894751560        3.1018779512        1.2552207942
 C          0.6583509942        3.2523648684       -0.7486029995
 C          0.1670743173        4.6618616253       -0.6133805546
 C          1.5551612216        4.3957891236       -1.1115541669
 H          1.7724309793        4.5698264936       -2.1548181104
 H          2.3864639299        4.5986703420       -0.4521449707
 H         -0.5686605334        5.0215251201       -1.3176419244
 H          0.0552916160        5.0598791357        0.3839974243
 H          0.2644012343        2.6492490821       -1.5604517588
 O          0.6347901314        0.0228572428       -1.0470576969
