  62
        -98.93936245
 C         -2.5886431823       -1.2034095059        0.1473026358
 C         -2.8503613200       -0.2889591305       -0.9010668278
 C         -4.2504665929        0.1383218861       -1.0390712344
 C         -5.1791974999       -0.3625757666       -0.2039488724
 C         -6.6298334228        0.0224428886       -0.2026905017
 C         -6.8925021285        1.1944776185        0.7531257353
 C         -5.9309070549        2.3684801811        0.5683596958
 H         -6.2302509274        3.1483033195        1.2720956175
 H         -4.9232257711        2.0530398876        0.8492061157
 C         -5.9010819559        2.9465400046       -0.8533637511
 H         -5.9276749950        4.0363239820       -0.7884166741
 H         -6.7914886701        2.6328734917       -1.3994654184
 C         -4.6550075792        2.5789638498       -1.6614921571
 H         -3.7586694729        2.8048885570       -1.0777877585
 H         -4.6309328715        3.2100536162       -2.5539224944
 C         -4.5689619286        1.1209986824       -2.1305013535
 H         -5.4926406603        0.8438531606       -2.6426635621
 H         -3.7437548549        1.0509109817       -2.8452270705
 H         -7.9188944498        1.5359338570        0.6071541546
 H         -6.7974197492        0.8325140517        1.7795600372
 H         -6.9303443062        0.2899257403       -1.2137583186
 H         -7.2136364289       -0.8394770977        0.1248418266
 O         -4.8906627146       -1.2543240028        0.7787144693
 C         -3.5914287301       -1.6867344475        0.9867855542
 O         -3.4594625207       -2.4881083437        1.9346837735
 H          1.3743675268       -1.3041227750       -0.5767966680
 C          1.0401065070       -0.5042061630        0.0656250494
 C         -0.2316045123       -0.5458261369        0.6152657699
 C         -0.6241312104        0.4930677231        1.4546800685
 C          0.2219804559        1.5547137415        1.7114215955
 C          1.4833555760        1.6022551486        1.1446083357
 C          1.8930339066        0.5633768624        0.3213008023
 N          3.1737257274        0.6030352394       -0.2570873668
 S          4.4501007094        1.0839365083        0.7415275795
 O          4.3115142280        0.4749460185        2.0453066295
 O          4.5280624395        2.5233079101        0.7246298999
 C          5.8452156021        0.3885298208       -0.1228231385
 C          6.2843585977       -0.8754008952        0.2244140214
 C          7.3520952866       -1.4271187557       -0.4656403756
 C          7.9571540722       -0.7108870957       -1.4876664377
 C          7.5052675834        0.5564720375       -1.8243912239
 C          6.4386160295        1.1147362111       -1.1377674712
 H          6.0592770769        2.0988096323       -1.3585732624
 H          7.9802967836        1.1106731878       -2.6177782413
 H          8.7881568734       -1.1425175730       -2.0228790587
 H          7.7077264927       -2.4107726251       -0.2040308900
 H          5.7909680250       -1.3917811679        1.0323659627
 H          3.3950904608       -0.2466936359       -0.7579063827
 H          2.1562279823        2.4224724084        1.3380831442
 H         -0.1020165426        2.3549873880        2.3604591313
 H         -1.6079408483        0.4585361420        1.9039538555
 C         -1.1746265745       -1.7013145862        0.3786060055
 H         -1.2106070465       -2.3000305335        1.3012567013
 C         -0.7552400261       -2.6000386576       -0.7674387275
 C          0.1905642595       -3.7389671002       -0.5342328013
 C         -1.2596577494       -4.0103699713       -0.7962299024
 H         -1.5431473236       -4.4379747611       -1.7461488590
 H         -1.8807170214       -4.3288801955        0.0285519282
 H          0.5585384179       -3.8865198749        0.4700857744
 H          0.9018834200       -3.9865568281       -1.3080545452
 H         -0.6996990979       -2.0685194605       -1.7107309279
 O         -1.9640339605        0.1456844996       -1.6818013982
