  62
        -98.94485629
 C         -2.3417413606       -0.2461616985        0.7539162902
 C         -2.5356027350        0.4920472047       -0.4377712801
 C         -2.3342173135        1.9412267650       -0.3306741290
 C         -1.9477359497        2.4782934423        0.8405292941
 C         -1.7057511107        3.9391847758        1.1084385605
 C         -0.3106038427        4.4230472544        0.6901881188
 C         -0.0990636863        4.5710816299       -0.8171101119
 H         -0.9124448124        5.1597808221       -1.2434920831
 H          0.8237284187        5.1375840130       -0.9574344244
 C          0.0257327280        3.2388065506       -1.5694226066
 H          0.2555188540        2.4363235308       -0.8645559348
 H          0.8690134171        3.2854208478       -2.2636661308
 C         -1.2079714087        2.8478150466       -2.3829845262
 H         -1.0222161129        1.8648696782       -2.8248398984
 H         -1.3525358597        3.5625585907       -3.1972056994
 C         -2.5061045427        2.7670511492       -1.5699508381
 H         -2.8508471486        3.7689601507       -1.3139543003
 H         -3.2652393610        2.2810913572       -2.1884349877
 H         -0.1487251383        5.3973867470        1.1575677382
 H          0.4334030679        3.7295619849        1.0898285212
 H         -2.4665134875        4.5361390077        0.6043419050
 H         -1.8105055477        4.0785957145        2.1866130903
 O         -1.7480639681        1.7311035942        1.9581135297
 C         -1.9124613904        0.3564898251        1.9351811443
 O         -1.6597637652       -0.2101890887        3.0197427762
 O         -2.8702229918       -0.0276108623       -1.5356434736
 C         -2.4842717250       -1.7591050713        0.7383401947
 C         -1.4887857550       -2.3154228120       -0.2513042379
 C         -1.8117519475       -3.2121879155       -1.2592897266
 C         -0.8471736843       -3.6097769573       -2.1700157830
 C          0.4393067980       -3.1095749575       -2.1042908872
 C          0.7789313015       -2.2265849342       -1.0829020652
 C         -0.1764267566       -1.8682870295       -0.1482569213
 H          0.0817862598       -1.1855301068        0.6469497277
 N          2.0916865566       -1.7292176212       -0.9789928053
 S          2.4586815240       -0.1094547550       -0.6927110235
 O          1.4309679836        0.5391274202        0.0776178848
 O          2.8062127517        0.5020837642       -1.9599482206
 C          3.9317156175       -0.3031848547        0.2890532164
 C          5.1751255211       -0.1301645796       -0.2861895870
 C          6.3063146931       -0.3280284166        0.4902179912
 C          6.1743342728       -0.6969153010        1.8200722892
 C          4.9181674815       -0.8657588891        2.3840210038
 C          3.7840616746       -0.6686402092        1.6126589965
 H          2.7881479383       -0.7828152023        2.0116066080
 H          4.8172773187       -1.1506146011        3.4191065338
 H          7.0547737260       -0.8524665287        2.4233380356
 H          7.2841359730       -0.1951787139        0.0561168957
 H          5.2285403906        0.1629883736       -1.3220205398
 H          2.6825493006       -2.0505219409       -1.7346570915
 H          1.1795346000       -3.3958144207       -2.8367081970
 H         -1.1081677980       -4.3020228729       -2.9563421392
 H         -2.8187061727       -3.5864053141       -1.3445751603
 H         -2.2050202695       -2.1036639755        1.7447237126
 C         -3.9165998223       -2.1603984806        0.4593991943
 C         -4.4475143730       -3.4644136279        0.9721834064
 C         -4.8970610905       -2.1763873974        1.5920281573
 H         -5.9044450132       -1.8356306361        1.4060890705
 H         -4.5238884720       -1.9198066279        2.5730366722
 H         -5.1514495886       -4.0104301022        0.3625204482
 H         -3.7740890416       -4.0899271524        1.5382914201
 H         -4.2686148778       -1.8029441140       -0.5012731419
