  62
        -98.93932726
 C         -2.5727822872       -0.2673220324        0.2205422402
 C         -2.6677751373        0.9075184456        1.0074715641
 C         -2.4142402293        2.1785687289        0.3189595796
 C         -2.0820167117        2.1633760380       -0.9842724444
 C         -1.7696380274        3.3807406983       -1.8049094839
 C         -0.2669476065        3.6900833014       -1.8063193561
 C          0.3656935725        3.7157585556       -0.4148102136
 H          0.3719058053        2.6990367658       -0.0139061846
 H          1.4105173693        4.0076639899       -0.5458565045
 C         -0.3092629447        4.6705780178        0.5798679927
 H         -0.9008190919        5.4098929415        0.0384506052
 H          0.4685721536        5.2118003422        1.1227325556
 C         -1.1881547396        3.9878144852        1.6296778662
 H         -0.6335722827        3.1653980660        2.0891325237
 H         -1.4074134929        4.7160668086        2.4152588733
 C         -2.5299687214        3.4403297783        1.1271329368
 H         -3.1333982221        3.1815654114        2.0022098493
 H         -3.0557684956        4.2132928401        0.5628896754
 H         -0.1156157415        4.6535907676       -2.2977691048
 H          0.2448310681        2.9214673351       -2.3910384827
 H         -2.0915382764        3.1922162408       -2.8308673779
 H         -2.3256688165        4.2291785224       -1.4097286008
 O         -1.9692880679        1.0182913688       -1.7020278072
 C         -2.1651674950       -0.2239996344       -1.1153109078
 O         -1.9665830259       -1.1801818492       -1.8879639474
 H         -0.2820892442       -0.8946418020        1.4870093349
 C         -0.2961108291       -1.8641808943        1.0020369683
 C         -1.5173827601       -2.4303338620        0.6574164262
 C         -1.5147110101       -3.6664025847        0.0267708563
 C         -0.3186961191       -4.2927432468       -0.2833631547
 C          0.8945578796       -3.6979061094        0.0139458969
 C          0.8977859917       -2.4755398525        0.6679570479
 N          2.1387262753       -1.8079589399        0.9105707107
 S          2.3893054612       -0.6773101583       -0.3323079875
 O          1.4938747696        0.4491323810       -0.1715975218
 O          2.3355265998       -1.3815552224       -1.5875994081
 C          4.0670752048       -0.1680738730       -0.0029040108
 C          5.0768406279       -1.0859436566       -0.2196900550
 C          6.3844216040       -0.7206306389        0.0560303440
 C          6.6589947485        0.5496971167        0.5413126712
 C          5.6350571031        1.4599714257        0.7529178394
 C          4.3240632203        1.0994058945        0.4811796383
 H          3.4955897373        1.7744385024        0.6269681184
 H          5.8504857432        2.4474621503        1.1282166801
 H          7.6777287054        0.8327442018        0.7542683474
 H          7.1835810681       -1.4252597661       -0.1081370044
 H          4.8142030026       -2.0569586751       -0.6049000683
 H          2.0933915884       -1.2760066590        1.7723347506
 H          1.8302037347       -4.1521203361       -0.2676090067
 H         -0.3336771372       -5.2457942766       -0.7900731879
 H         -2.4491838087       -4.1210676613       -0.2597803713
 C         -2.7479088010       -1.6031701928        0.9276701378
 H         -2.7538675338       -1.3393983424        1.9991491044
 C         -4.0569352495       -2.3247980157        0.6570574095
 C         -5.2931343443       -1.5584985292        0.2944735906
 C         -4.6474852269       -2.4593640743       -0.7131236844
 H         -5.1462052512       -3.3846516916       -0.9627041728
 H         -4.1101951350       -2.0167605024       -1.5363574026
 H         -5.1940905761       -0.4908426974        0.1600600348
 H         -6.2331142507       -1.8604145401        0.7312512500
 H         -4.1950224106       -3.1676302603        1.3277397848
 O         -2.9484197861        0.8918360422        2.2375207713
