  62
        -98.93806885
 C         -2.1809124673       -0.9217904149       -0.0099048378
 C         -2.9068111292       -0.1765964046        0.9448139186
 C         -3.7561884690        0.9177718761        0.4351136566
 C         -3.7674520427        1.1632420821       -0.8887077277
 C         -4.5753760034        2.1889332753       -1.6384352647
 C         -6.0497981213        1.7824692250       -1.7943548333
 C         -6.6958515014        1.2091932370       -0.5358011733
 H         -6.1282565961        0.3368044532       -0.2068379952
 H         -7.6965737981        0.8615934074       -0.8054258612
 C         -6.8401728576        2.1889196275        0.6263154599
 H         -7.3917423242        1.6746766355        1.4175643713
 H         -7.4413088286        3.0419233860        0.3036363717
 C         -5.5337963522        2.7149078638        1.2246952199
 H         -5.7810955926        3.1927517227        2.1772931894
 H         -5.0973786913        3.4875972587        0.5973953149
 C         -4.4966423428        1.6400891476        1.5351836689
 H         -4.9618169956        0.8595863300        2.1483259400
 H         -3.7199672339        2.0797151883        2.1735354506
 H         -6.1082592869        1.0197048626       -2.5745473466
 H         -6.6135567868        2.6539464323       -2.1313724978
 H         -4.1307861737        2.2713521986       -2.6326680465
 H         -4.4892170729        3.1581396749       -1.1561049849
 O         -3.0245665398        0.4353323410       -1.7711759648
 C         -2.2202212065       -0.6153179989       -1.3696334628
 O         -1.6038660194       -1.1783046448       -2.2930994838
 O         -2.8530598067       -0.4112278865        2.1842369489
 C         -1.3074145662       -2.0707073442        0.4558973947
 C          0.1368618250       -1.8267167983        0.0913277109
 C          0.9714665040       -2.8161548646       -0.4115449137
 C          2.2951494693       -2.5359132099       -0.7046156271
 C          2.8157138387       -1.2714083662       -0.5029214671
 C          1.9937117411       -0.2765324351        0.0105463146
 C          0.6708613251       -0.5622309529        0.3089023691
 H          0.0339718641        0.2153450044        0.7145206247
 N          2.5141696652        1.0162373357        0.2125804924
 S          3.8740663295        1.1537273068        1.1920078452
 O          3.9156295378        0.1054613078        2.1857360856
 O          3.8452713834        2.5113605266        1.6915883612
 C          5.2387765863        0.9783439036        0.0627476903
 C          6.1919285877        0.0031872590        0.2820972231
 C          7.2512297426       -0.1092837680       -0.6050590327
 C          7.3378539679        0.7507727814       -1.6890945757
 C          6.3732888189        1.7264322624       -1.8936034416
 C          5.3126819906        1.8454425268       -1.0097985034
 H          4.5442375419        2.5907559067       -1.1306623895
 H          6.4437832744        2.3930854734       -2.7379900673
 H          8.1617845473        0.6604182479       -2.3792060706
 H          8.0021319986       -0.8667685962       -0.4477606652
 H          6.0787366090       -0.6467142906        1.1349870191
 H          1.8159713728        1.6887086007        0.4963527075
 H          3.8431417600       -1.0473488937       -0.7387147764
 H          2.9294400940       -3.3141114695       -1.1005926247
 H          0.5847778418       -3.8080979647       -0.5774364636
 H         -1.3819701943       -2.0677961897        1.5544297613
 C         -1.8490907068       -3.3860235776       -0.0645351557
 C         -1.6663465910       -4.6471658830        0.7243304473
 C         -3.0193653133       -4.0102263126        0.6327045167
 H         -3.7796623359       -4.4911552569        0.0358306492
 H         -3.4059892400       -3.5003244987        1.5033064705
 H         -1.4998507321       -5.5701954481        0.1898041958
 H         -1.1371939380       -4.5779504720        1.6628492308
 H         -1.8203276282       -3.4466075991       -1.1466973334
