  62
        -98.93238312
 C          2.5113803756        1.0335774515        0.2281157614
 C          2.7314285485       -0.0316645417        1.1324991595
 C          3.4084626029       -1.2177510613        0.5877800239
 C          3.7645378476       -1.2284987012       -0.7099502963
 C          4.3913117555       -2.3872106202       -1.4323461977
 C          3.3198721903       -3.4462519548       -1.7618203284
 C          3.5085695288       -4.7799400002       -1.0383854316
 H          2.5929030534       -5.3588869937       -1.1759139319
 H          4.3213608289       -5.3305307708       -1.5165120479
 C          3.8217932151       -4.6893602916        0.4582557578
 H          4.8778584463       -4.4546199506        0.5988612744
 H          3.6666066733       -5.6861811893        0.8763582048
 C          2.9846332530       -3.6836146946        1.2590525244
 H          2.7515795380       -4.1307881482        2.2275458558
 H          2.0341119344       -3.4918694633        0.7605964067
 C          3.6908574339       -2.3445250820        1.5432229134
 H          3.3580743695       -1.9741776804        2.5174774455
 H          4.7703298290       -2.5071739754        1.6059973176
 H          3.3161603407       -3.6375104396       -2.8359131575
 H          2.3406502756       -3.0305120882       -1.5148185003
 H          5.1809550427       -2.8179940834       -0.8207163638
 H          4.8331301344       -1.9962629501       -2.3490308667
 O          3.5194646395       -0.1916927160       -1.5524994419
 C          2.8838415431        0.9607938912       -1.1141110532
 O          2.7178751840        1.8219280293       -1.9972419945
 O          2.3729404637        0.0058540439        2.3417725230
 C          1.8137690964        2.2863271297        0.7279878770
 C          0.4885002162        2.4442330237        0.0225431950
 C          0.1118773862        3.5905075592       -0.6627926684
 C         -1.1198498173        3.6550012077       -1.2924866239
 C         -1.9982961589        2.5888521349       -1.2513173683
 C         -1.6373482032        1.4406404958       -0.5566497209
 C         -0.4058580734        1.3811355922        0.0777528265
 H         -0.1224160599        0.4885460788        0.6224227481
 N         -2.5133794983        0.3373264660       -0.5172407652
 S         -4.1413412217        0.6570193273       -0.1917524067
 O         -4.7619617541        1.1442784491       -1.3976219411
 O         -4.2572799018        1.5133561270        0.9679792922
 C         -4.7433586377       -0.9784474763        0.1769558929
 C         -5.0780304076       -1.8141668248       -0.8716068654
 C         -5.5252628738       -3.0951092850       -0.5897599284
 C         -5.6292412841       -3.5165809668        0.7276732368
 C         -5.2909003245       -2.6658471389        1.7692906099
 C         -4.8415452799       -1.3837152231        1.4944514738
 H         -4.5764392546       -0.6859812338        2.2727710934
 H         -5.3756538360       -2.9952004419        2.7924052436
 H         -5.9793175969       -4.5134203207        0.9445529763
 H         -5.7917842247       -3.7588792157       -1.3963357307
 H         -4.9900759889       -1.4401015566       -1.8782311572
 H         -2.1696441855       -0.3884707241        0.0975176530
 H         -2.9590803173        2.6319847221       -1.7379953330
 H         -1.3992194860        4.5503964615       -1.8272847283
 H          0.7824932023        4.4322900240       -0.7113863494
 H          1.6086854209        2.0998922709        1.7927469848
 C          2.7205358613        3.4922724955        0.6129179312
 C          2.5205079901        4.6692692670        1.5188121256
 C          3.7018381839        3.7678473479        1.7111613356
 H          4.6816888898        4.1355578369        1.4461216275
 H          3.7022396512        3.0963032561        2.5573803334
 H          2.6908255556        5.6593232931        1.1238113796
 H          1.7173984185        4.6143298265        2.2382005073
 H          3.0454322170        3.6764765382       -0.4046192014
