  62
        -98.93841590
 C         -1.1878741650       -1.3876666101        0.6213455878
 C         -2.0328725095       -1.1901882949       -0.4940658750
 C         -3.1085606755       -0.1841075988       -0.3433310231
 C         -3.1753081107        0.5350249244        0.7919673423
 C         -4.2083390343        1.5546484404        1.2016120385
 C         -4.0933618080        2.9094770693        0.4842840832
 C         -3.7784931674        2.8255634745       -1.0059869988
 H         -3.5748011586        3.8380964404       -1.3636819763
 H         -2.8689356405        2.2411286643       -1.1483497297
 C         -4.8949263246        2.2388370539       -1.8649718119
 H         -5.7981392927        2.8407471859       -1.7423858853
 H         -4.5823342207        2.3198451350       -2.9092784504
 C         -5.2409849405        0.7755253888       -1.5848553492
 H         -5.8308503452        0.6770139615       -0.6776163841
 H         -5.8741208595        0.4278253008       -2.4062933425
 C         -4.0363238249       -0.1592188992       -1.5344141968
 H         -4.3915209877       -1.1907766482       -1.6444670969
 H         -3.4057557097        0.0189568529       -2.4132596821
 H         -3.2999757058        3.4871010487        0.9643831270
 H         -5.0283557209        3.4535495988        0.6289584110
 H         -5.2008554929        1.1336565834        1.0623105674
 H         -4.0701431219        1.7170503307        2.2730608479
 O         -2.2478731894        0.4020451672        1.7852883798
 C         -1.2571562415       -0.5543195248        1.7397764287
 O         -0.5088117026       -0.5734834497        2.7381557794
 H          1.9374878518       -1.0729245333        1.4720467653
 C          2.0494080856       -1.3670937920        0.4360280308
 C          1.0496857774       -2.1264242197       -0.1597913548
 C          1.1850436740       -2.4705586254       -1.4989332147
 C          2.3003269746       -2.0713485647       -2.2158471711
 C          3.3004451518       -1.3260625416       -1.6163719337
 C          3.1666898340       -0.9679401555       -0.2816732980
 N          4.1679957142       -0.1680941506        0.3214647770
 S          4.1610321969        1.4287064361       -0.1899553914
 O          4.4643616218        1.4630961434       -1.5969349473
 O          5.0725200439        2.1317050070        0.6826688551
 C          2.4853161336        1.9621306009        0.1001885029
 C          1.5112171499        1.6152665479       -0.8147017067
 C          0.1907599009        1.9210962020       -0.5310400817
 C         -0.1300724756        2.5694657982        0.6507058824
 C          0.8595058928        2.9126636768        1.5580900015
 C          2.1804992200        2.5968791010        1.2873194631
 H          2.9804164515        2.8372703620        1.9695014211
 H          0.6011822735        3.4100915254        2.4791191840
 H         -1.1600047926        2.7992703389        0.8705030655
 H         -0.5824223090        1.6361056856       -1.2279020348
 H          1.7939693862        1.1169652777       -1.7277538518
 H          4.1174828532       -0.1786670607        1.3315731568
 H          4.1672753609       -0.9946000607       -2.1644186884
 H          2.3925322640       -2.3454775297       -3.2558560312
 H          0.4028161831       -3.0310434927       -1.9836958955
 C         -0.1527750864       -2.5017547372        0.6698759946
 H          0.1746723681       -2.5474866180        1.7175802045
 C         -0.7428251912       -3.8455048217        0.2940069642
 C          0.0112108821       -5.0923380959        0.6418068387
 C         -1.2493616093       -4.7490784337        1.3759018548
 H         -2.1350955518       -5.3361083421        1.1843646666
 H         -1.1683531320       -4.4043504131        2.3967635313
 H         -0.0066285513       -5.9173609947       -0.0534864164
 H          0.9492743348       -4.9783957418        1.1641678443
 H         -1.2967419098       -3.8317457232       -0.6351960770
 O         -1.9365236845       -1.8342499964       -1.5708096099
