  62
        -98.92908035
 C          2.3388073921        0.8191688769        0.2399335678
 C          3.5998882470        0.9750358535        0.8690908066
 C          4.7753351484        0.5345879288        0.1036044967
 C          4.5949818557       -0.0056515175       -1.1149810272
 C          5.6788626727       -0.5744103184       -1.9859834552
 C          6.0899173743       -1.9690953589       -1.4723994994
 C          7.5228837772       -2.0499926287       -0.9455826452
 H          7.6249984858       -3.0029403534       -0.4219453819
 H          8.2119747687       -2.0642088512       -1.7926288788
 C          7.9553392687       -0.9176187827       -0.0090793237
 H          8.2138790371       -0.0345863412       -0.5953815346
 H          8.8742791524       -1.2449425186        0.4819612074
 C          6.9400498138       -0.5119331502        1.0671167215
 H          7.4873854227       -0.3014679844        1.9882500798
 H          6.2594753784       -1.3355912708        1.2843560254
 C          6.1231827315        0.7506747652        0.7345336397
 H          5.9127059829        1.2844350272        1.6661431680
 H          6.7196389952        1.4149543256        0.1028454796
 H          5.9791891291       -2.6996614113       -2.2751562294
 H          5.3934533158       -2.2627748230       -0.6840381571
 H          6.5340137472        0.0978723141       -1.9945369963
 H          5.2789545770       -0.6451360215       -2.9976686196
 O          3.3684621862       -0.1706057278       -1.6722357113
 C          2.2089053009        0.2284204791       -1.0176420249
 O          1.1676465478        0.0019357458       -1.6599214505
 O          3.7357387756        1.4618309640        2.0238145421
 C          1.1111971784        1.2608074155        1.0167198180
 C          0.0626642376        0.1773429359        0.9915596043
 C          0.3530984950       -1.0418292255        1.5985502240
 C         -0.5684236040       -2.0706853364        1.5978493537
 C         -1.8024806369       -1.9068237110        0.9936429805
 C         -2.1039640628       -0.6951143077        0.3885621390
 C         -1.1779753332        0.3416582841        0.3980117413
 H         -1.4189988587        1.2709443761       -0.0943163982
 N         -3.3480630136       -0.5286456966       -0.2441482712
 S         -4.7110594207       -1.1241980170        0.5537239990
 O         -4.6514082672       -0.7830406061        1.9577443242
 O         -4.8429171753       -2.5284829171        0.2549791010
 C         -6.0094693482       -0.2089969072       -0.2537977255
 C         -6.4942833325       -0.6657603446       -1.4646601765
 C         -7.4850128506        0.0609803073       -2.1055925099
 C         -7.9705607689        1.2255287367       -1.5293912511
 C         -7.4747479442        1.6706538784       -0.3131557276
 C         -6.4831635008        0.9493037979        0.3328515088
 H         -6.0750071002        1.2522043035        1.2838162640
 H         -7.8564674291        2.5746036941        0.1335369953
 H         -8.7424657538        1.7884239241       -2.0299924792
 H         -7.8750002465       -0.2826415528       -3.0500704623
 H         -6.0930408272       -1.5799964594       -1.8698861057
 H         -3.4893448565        0.4164406284       -0.5727791832
 H         -2.5334597875       -2.6995680558        0.9848574758
 H         -0.3265808184       -3.0111389484        2.0707488076
 H          1.3193143274       -1.1741608575        2.0672162952
 H          1.4694426171        1.3547449236        2.0557171237
 C          0.5789981899        2.6306583097        0.6236771734
 C          1.4992564253        3.6910645022        0.0992809969
 C          0.4706122429        3.0799970329       -0.8017999586
 H         -0.3806483486        3.6823082286       -1.0848327089
 H          0.7956315525        2.3954097356       -1.5691641619
 H          1.3549024077        4.7073821531        0.4337142066
 H          2.5349726059        3.4234279542       -0.0510982039
 H         -0.2021366995        2.9657163216        1.2999389194
