  62
        -98.94519714
 C          2.4618277671        1.2288117204       -0.0854382289
 C          3.4567618430        0.7039942922        0.7797405998
 C          4.2307128947       -0.4288180003        0.2634590609
 C          3.9791648188       -0.8994825045       -0.9714130814
 C          4.6884489704       -2.0423920081       -1.6453096842
 C          4.1330078744       -3.4239558599       -1.2726621586
 C          4.4702225627       -3.9006554041        0.1407479807
 H          4.2123934148       -4.9604102324        0.1903289948
 H          5.5453392512       -3.8186707039        0.3034499222
 C          3.7202011166       -3.1585391006        1.2558904837
 H          2.8600230181       -2.6345917159        0.8312196985
 H          3.3276732242       -3.8821641556        1.9739131463
 C          4.5735769317       -2.1607549478        2.0392855588
 H          5.3577042464       -2.6953336017        2.5798558690
 H          3.9328742372       -1.6671137978        2.7741942866
 C          5.2289144545       -1.0743611877        1.1764928799
 H          5.6219478960       -0.3003917835        1.8400101792
 H          6.0531597705       -1.4958770230        0.6019209984
 H          3.0480976367       -3.4113729430       -1.4043942156
 H          4.5451002716       -4.1435276168       -1.9839868019
 H          4.5595446062       -1.8982342883       -2.7201940482
 H          5.7530615810       -2.0017661317       -1.4135946563
 O          3.0305649513       -0.3574905521       -1.7792401465
 C          2.2303790645        0.6933597107       -1.3525381615
 O          1.3851061730        1.0507913831       -2.1973494691
 H         -0.5960960235        2.0875587277       -1.1669906250
 C         -0.7604679423        1.6884490041       -0.1783266006
 C          0.2438293668        1.7744877715        0.7741392274
 C          0.0212401357        1.2155027640        2.0293069828
 C         -1.1761864113        0.5888605693        2.3205452493
 C         -2.1705917613        0.4931382293        1.3625093033
 C         -1.9510068854        1.0331659265        0.1029175355
 N         -2.9453004741        0.9066884785       -0.8872809967
 S         -3.4723966575       -0.6573557631       -1.2154928664
 O         -2.4608493552       -1.6403130305       -0.9001290575
 O         -3.9398686196       -0.6264015513       -2.5844920084
 C         -4.8757337578       -0.8570730257       -0.1358984607
 C         -4.9126935225       -1.9052415458        0.7626264629
 C         -6.0180542397       -2.0416244136        1.5882758667
 C         -7.0615747429       -1.1330607179        1.5001733402
 C         -7.0103689557       -0.0873564999        0.5903084651
 C         -5.9088463861        0.0540484474       -0.2383668350
 H         -5.8302526094        0.8485708897       -0.9613680026
 H         -7.8238610086        0.6169796908        0.5244725242
 H         -7.9197575483       -1.2407910851        2.1445308590
 H         -6.0592279784       -2.8540786728        2.2958850403
 H         -4.0748590583       -2.5834114816        0.7989819846
 H         -2.6945422751        1.3668542923       -1.7517170827
 H         -3.1010580402       -0.0072625759        1.5758724012
 H         -1.3355169648        0.1636368865        3.2997800502
 H          0.8094028379        1.2610865871        2.7676325970
 C          1.5955587694        2.3598956596        0.4475390461
 H          2.0702114090        2.6677597090        1.3886717625
 C          1.5380602499        3.5541236234       -0.4807252651
 C          1.0023115725        4.8534556774        0.0397840938
 C          2.4655226116        4.7075076492       -0.2476353483
 H          2.8773929506        5.2167576836       -1.1060163484
 H          3.1467191714        4.6405449223        0.5878651677
 H          0.4069312694        5.4668314722       -0.6189591135
 H          0.6892400434        4.8830867386        1.0723997628
 H          1.3262371038        3.2944757398       -1.5102626009
 O          3.6875712649        1.1650162595        1.9284845889
