  62
        -98.93952434
 C         -1.7426386005       -1.3484983181       -0.0345714269
 C         -2.8759834193       -0.9178488288        0.6901399373
 C         -3.6270385383        0.2200595706        0.1294575489
 C         -3.1940767630        0.8026057111       -1.0045081411
 C         -3.7662510894        1.9429714381       -1.8210469964
 C         -4.8520431376        2.8491448727       -1.2467832730
 C         -4.3975810253        3.7384147426       -0.0896737038
 H         -3.7077869538        4.4915197470       -0.4793111617
 H         -5.2717661316        4.2613830342        0.3040741593
 C         -3.6920212502        3.0190338053        1.0573168442
 H         -3.4170523451        3.7691030499        1.8042194061
 H         -2.7628697300        2.5741412367        0.6940489609
 C         -4.5173157780        1.9430317830        1.7606130512
 H         -5.4649552884        2.3684544473        2.0963637351
 H         -3.9606543959        1.6281833587        2.6478433692
 C         -4.8117246678        0.6834057753        0.9275125001
 H         -5.0512309529       -0.1288715133        1.6201653231
 H         -5.6761616241        0.8281721437        0.2839831335
 H         -5.1710415136        3.5063194194       -2.0603310909
 H         -5.7195196664        2.2627300248       -0.9586653757
 H         -2.9095922171        2.5567211660       -2.1178012239
 H         -4.1494353583        1.4852292107       -2.7397621977
 O         -2.0817394937        0.3599786786       -1.6613669526
 C         -1.3339864495       -0.7178405060       -1.2084402303
 O         -0.3539098846       -0.9960963005       -1.9204341667
 O         -3.2510258386       -1.4611673500        1.7650204048
 C         -0.9283694819       -2.5175154542        0.4856885695
 C          0.5097022564       -2.1157055831        0.7077850337
 C          1.5818779017       -2.9501457980        0.4175454290
 C          2.8819028668       -2.5311151086        0.6441784960
 C          3.1442062465       -1.2730422569        1.1534290351
 C          2.0793468516       -0.4290157206        1.4426414134
 C          0.7782540838       -0.8581749588        1.2333114789
 H         -0.0463315736       -0.1959043626        1.4680271863
 N          2.3337545618        0.8655494661        1.9276299785
 S          3.5326699385        1.7504288779        1.1614700354
 O          4.8095016922        1.4351678466        1.7536269009
 O          3.1147387156        3.1308485324        1.2776861277
 C          3.5219285938        1.2285651563       -0.5450841333
 C          4.6910309169        0.7803110202       -1.1257149380
 C          4.6645456661        0.3591497570       -2.4453062654
 C          3.4735857708        0.3842028318       -3.1542538320
 C          2.3077071784        0.8404129295       -2.5586553966
 C          2.3316174638        1.2712966895       -1.2428807336
 H          1.4347721218        1.6257254413       -0.7589753308
 H          1.3736232482        0.8358537751       -3.0967393174
 H          3.4486108900        0.0432013110       -4.1771573896
 H          5.5689192279        0.0048274857       -2.9131654514
 H          5.5908281484        0.7645129272       -0.5322879858
 H          1.5024501761        1.4234052491        2.0566714713
 H          4.1503167946       -0.9296975157        1.3325069152
 H          3.7034815210       -3.1918592265        0.4145902279
 H          1.3997561291       -3.9304630134        0.0093587661
 H         -1.3680269798       -2.7699422260        1.4626971988
 C         -1.0805396123       -3.7096503185       -0.4372953779
 C         -1.0442014746       -5.1051180575        0.1083369315
 C         -2.3391859638       -4.5196868187       -0.3660733239
 H         -2.7692711773       -4.8880609103       -1.2853009559
 H         -3.0726093527       -4.2298517313        0.3724121526
 H         -0.5863244254       -5.8801569275       -0.4876833621
 H         -0.9034893580       -5.2242028610        1.1720474334
 H         -0.6558303428       -3.5299685287       -1.4185919337
