  62
        -98.93421981
 C          2.4757181189        1.0110496984        0.3000255613
 C          2.1535508054        0.1663815148       -0.7903599099
 C          2.7012707197       -1.1956538441       -0.7159870771
 C          3.4726881672       -1.5570171386        0.3245878070
 C          4.1131073095       -2.9036043428        0.5272834894
 C          3.1857252033       -3.9420646047        1.1737573142
 C          2.0707342643       -4.4712092681        0.2706140707
 H          2.5015233863       -4.8213794859       -0.6677511371
 H          1.6367793236       -5.3378177846        0.7734871090
 C          0.9541550245       -3.4576074859       -0.0192763392
 H          1.0046369551       -2.6430214577        0.7073972341
 H         -0.0161686811       -3.9417072453        0.1125177650
 C          0.9856515945       -2.8655499343       -1.4288141780
 H          0.1832568287       -2.1278587350       -1.5107996076
 H          0.8015540509       -3.6539442290       -2.1616881470
 C          2.3028913418       -2.1654716186       -1.7868158261
 H          3.0909315695       -2.8995897909       -1.9517335803
 H          2.1501401096       -1.5987664112       -2.7081371947
 H          3.8066070828       -4.7866266477        1.4815310763
 H          2.7489943919       -3.5065161518        2.0757968414
 H          4.4787036417       -3.2837958167       -0.4268300528
 H          4.9674009019       -2.7460775058        1.1892638829
 O          3.7781517386       -0.7047813740        1.3406261894
 C          3.2695933647        0.5840229899        1.3637480413
 O          3.5890378890        1.2443779264        2.3750129252
 O          1.4465978490        0.5155138331       -1.7673448445
 C          1.9551427749        2.4431793432        0.3544969503
 C          0.4732127293        2.4325891596        0.0578994239
 C         -0.1967916106        3.0712307600       -0.9768383106
 C         -1.5741929809        2.9743870462       -1.0914570687
 C         -2.3221895867        2.2369445165       -0.1950085262
 C         -1.6656484985        1.5679367747        0.8303275798
 C         -0.2891726035        1.6790880776        0.9492399940
 H          0.2156222495        1.1626876723        1.7574173025
 N         -2.3882666556        0.8091942359        1.7593949351
 S         -3.8487680763        0.0900183131        1.4103484613
 O         -4.8671006184        1.1029149249        1.2797595437
 O         -4.0385470301       -0.8691909957        2.4752763813
 C         -3.6574381775       -0.7683453194       -0.1414323854
 C         -2.8254233474       -1.8694993988       -0.1813798028
 C         -2.6876673417       -2.5624967681       -1.3729540767
 C         -3.3705883031       -2.1378716076       -2.5024100092
 C         -4.2026968446       -1.0310733774       -2.4464193043
 C         -4.3534962872       -0.3413444070       -1.2541418027
 H         -5.0058839903        0.5120220140       -1.1645669986
 H         -4.7367705068       -0.7056156275       -3.3245391702
 H         -3.2552934879       -2.6771313170       -3.4292348235
 H         -2.0493546067       -3.4300868320       -1.4181556850
 H         -2.3125275808       -2.1761350768        0.7163027739
 H         -1.8293694618        0.2641133637        2.3962728674
 H         -3.3954015279        2.1825244406       -0.2645295027
 H         -2.0728402986        3.4861286299       -1.9005931776
 H          0.3345140748        3.6360919554       -1.7197544257
 H          2.0531507276        2.7436367827        1.4116697103
 C          2.9308104586        3.3302406740       -0.4050161659
 C          2.9492345227        3.5323647531       -1.8874520689
 C          2.6297929145        4.6825181505       -0.9768945372
 H          3.3801159741        5.4504156899       -0.8569331940
 H          1.6206864224        5.0560890673       -0.9243031857
 H          3.9104364033        3.5268125894       -2.3816192453
 H          2.1698221310        3.0690334787       -2.4699527326
 H          3.9094415554        3.2319591781        0.0619888688
