  62
        -98.94465201
 C         -1.2456636294       -1.5049101899        0.3581428797
 C         -1.7786593601       -0.5605953200        1.2715641593
 C         -2.9157316503        0.2333897594        0.7961150188
 C         -3.3622608199        0.0681263389       -0.4615910613
 C         -4.5153937901        0.7971234182       -1.0953981418
 C         -4.1403514405        2.1756208083       -1.6561845719
 C         -3.9074266213        3.2641825186       -0.6076862621
 H         -3.8879867116        4.2182575185       -1.1383403023
 H         -4.7520500416        3.2912702384        0.0821458077
 C         -2.5990390115        3.1191526094        0.1822126683
 H         -1.9097855910        2.4650032996       -0.3588755213
 H         -2.1065834720        4.0928353996        0.2486836283
 C         -2.7734954117        2.6047369696        1.6116337484
 H         -3.3244246522        3.3431005795        2.1993136381
 H         -1.7810468418        2.4954001302        2.0566932587
 C         -3.4981564411        1.2572848993        1.7233592684
 H         -4.5616686211        1.3870912888        1.5233324381
 H         -3.3755823712        0.8883552296        2.7449317086
 H         -4.9572025005        2.4966278878       -2.3071689722
 H         -3.2436977703        2.0713042586       -2.2724808116
 H         -4.8629968395        0.1720282779       -1.9208488017
 H         -5.3261377803        0.9037835880       -0.3738449720
 O         -2.8033207692       -0.8213450110       -1.3224753909
 C         -1.7159591890       -1.6042751404       -0.9524681004
 O         -1.2855173684       -2.3282536404       -1.8696301502
 O         -1.3194346705       -0.3857479495        2.4320929694
 C         -0.0335673792       -2.3021159693        0.8032008102
 C          1.0917307610       -2.1421633890       -0.1902073995
 C          1.9210900016       -3.1744208087       -0.6082666290
 C          2.9534879518       -2.9227914384       -1.4965200688
 C          3.1945087613       -1.6464848484       -1.9709244690
 C          2.3659042307       -0.6070082487       -1.5621361494
 C          1.3314724606       -0.8653714490       -0.6801441197
 H          0.6717414501       -0.0608371192       -0.3964727901
 N          2.5556114203        0.7020803213       -2.0230569497
 S          2.0630801894        2.0043508813       -1.1052088901
 O          0.6284008293        2.1399276106       -1.1469698705
 O          2.8155289190        3.1189102315       -1.6418492001
 C          2.6203963291        1.6447813019        0.5515613102
 C          1.7124343388        1.4814651317        1.5769815599
 C          2.1764780586        1.1505663322        2.8401785501
 C          3.5364833086        0.9940424228        3.0564488406
 C          4.4393220189        1.1756516930        2.0193632908
 C          3.9794427491        1.5013279926        0.7542176806
 H          4.6520867293        1.6551481727       -0.0737073492
 H          5.4969193289        1.0581240436        2.1921414611
 H          3.8929163785        0.7297336432        4.0395076507
 H          1.4652119885        1.0028951420        3.6374118000
 H          0.6579640289        1.5982176712        1.3785385096
 H          3.4056420303        0.8723936816       -2.5377490494
 H          4.0006876715       -1.4557326181       -2.6622924488
 H          3.5847413423       -3.7356139582       -1.8220828284
 H          1.7505502820       -4.1788388887       -0.2575832189
 H          0.2849450003       -1.7986166289        1.7332097902
 C         -0.3180280986       -3.7492716793        1.1787342804
 C         -1.7114671985       -4.2229672399        1.4623544201
 C         -0.9916778179       -4.7028599098        0.2395470004
 H         -0.6499997974       -5.7274658697        0.2166104907
 H         -1.2986379678       -4.3191469502       -0.7203603497
 H         -1.8622706984       -4.9128978198        2.2792377102
 H         -2.5182077288       -3.5156659303        1.3324197397
 H          0.4594520414       -4.1644719188        1.8124930007
