  62
        -98.93735945
 C          1.9554286371        1.0130847344        0.0142573266
 C          2.3195024100        0.0383631527        0.9703745472
 C          2.4719606681       -1.3325654325        0.4683213467
 C          2.2273622031       -1.5955301735       -0.8281123264
 C          2.2601501682       -2.9467819790       -1.4931449779
 C          3.6317469390       -3.6465822830       -1.5576044073
 C          3.8995852814       -4.6211606924       -0.4040851494
 H          2.9433252859       -4.9579107937       -0.0018161580
 H          4.4025565827       -5.5051356616       -0.8012209674
 C          4.7722563311       -4.0838165638        0.7340710929
 H          5.8178982790       -4.0974244842        0.4187323814
 H          4.6744224163       -4.7662656995        1.5809371947
 C          4.4554223222       -2.6640823645        1.2042435558
 H          4.8324028493       -1.9423042575        0.4758236144
 H          5.0019082898       -2.4814488265        2.1315527352
 C          2.9574470279       -2.3789589052        1.4290571299
 H          2.3692264364       -3.2904834380        1.3305258978
 H          2.7985397419       -1.9767310194        2.4318720346
 H          3.6536280139       -4.2101922360       -2.4915878167
 H          4.4190766689       -2.8955540125       -1.6142563782
 H          1.5406133885       -3.5967037907       -0.9891920278
 H          1.8962216833       -2.7761551285       -2.5085248595
 O          1.8678171046       -0.6284546089       -1.7160501260
 C          1.7156016836        0.6900728024       -1.3213866105
 O          1.3831629392        1.4668845269       -2.2378116611
 O          2.5004261146        0.3007466806        2.1918315317
 C          1.7283344246        2.4445606228        0.4644813884
 C          0.3072818612        2.8456898118        0.1522738778
 C         -0.0417306240        4.0686256772       -0.4053333093
 C         -1.3639374325        4.3469714039       -0.7072489389
 C         -2.3574743360        3.4151983060       -0.4724768537
 C         -2.0204401027        2.1964925467        0.1071091076
 C         -0.7016516108        1.9327312699        0.4333279540
 H         -0.4519560389        0.9808826313        0.8809978764
 N         -3.0050191422        1.2313553841        0.3855576049
 S         -2.5784708212       -0.3986287608        0.2698794464
 O         -1.9484171311       -0.8008474206        1.5036655043
 O         -1.8344528898       -0.6474654883       -0.9445533813
 C         -4.2006608682       -1.1336079243        0.1660036385
 C         -4.7097346527       -1.4855810972       -1.0695909932
 C         -5.9858629548       -2.0224478046       -1.1408314625
 C         -6.7281571423       -2.1937639799        0.0179543901
 C         -6.2035067550       -1.8361137796        1.2512325203
 C         -4.9278983606       -1.3003016184        1.3296507380
 H         -4.4734498870       -1.0157161033        2.2642347425
 H         -6.7823054646       -1.9732250164        2.1502415358
 H         -7.7209839370       -2.6109444472       -0.0403784657
 H         -6.3944133913       -2.3040098992       -2.0979157522
 H         -4.0918542431       -1.3398591267       -1.9413893208
 H         -3.8781012229        1.4171461720       -0.0896240518
 H         -3.3836522268        3.6242438707       -0.7337581532
 H         -1.6210337173        5.2974010998       -1.1497813720
 H          0.7227612827        4.7976701631       -0.6185228096
 H          1.8534753024        2.4320887118        1.5580759423
 C          2.7663540713        3.3684309791       -0.1372177934
 C          3.2022828132        4.5996727374        0.5980456878
 C          4.1280499931        3.4271084598        0.4854834441
 H          4.9879781114        3.5056796457       -0.1625268483
 H          4.2959320340        2.8184690843        1.3621103990
 H          3.4311192579        5.4868418815        0.0271828446
 H          2.7484331316        4.7948235457        1.5578152463
 H          2.7075669110        3.4066352083       -1.2193116729
