  62
        -98.93742481
 C         -1.8406842698       -1.5407387638        0.2397742551
 C         -1.9830685101       -0.4262997367        1.1038975430
 C         -3.0361895508        0.5502231034        0.7781587763
 C         -3.7900264356        0.3573378752       -0.3203255843
 C         -4.9639773375        1.1330263699       -0.8811088353
 C         -5.3392736821        2.4973386110       -0.3103840603
 C         -4.3423589950        3.6127371693       -0.6263186661
 H         -4.4258728704        3.8569959223       -1.6883775794
 H         -4.6279248984        4.5006801005       -0.0583479787
 C         -2.8767451642        3.2901561402       -0.3454040815
 H         -2.5647072536        2.4377401542       -0.9518280692
 H         -2.2842287505        4.1505649350       -0.6672484546
 C         -2.5348647818        3.0097569964        1.1159417622
 H         -2.8423416911        3.8551152320        1.7348002662
 H         -1.4484198057        2.9135028677        1.1895035603
 C         -3.1490465667        1.7289084711        1.7023509717
 H         -2.5840957124        1.4657992451        2.6014881694
 H         -4.1820422628        1.8878172737        2.0022626937
 H         -6.2962250016        2.7730346562       -0.7617984628
 H         -5.5089374759        2.4213309879        0.7596868501
 H         -4.7758595443        1.2315717909       -1.9550590676
 H         -5.8275730563        0.4660581444       -0.7824272954
 O         -3.5924586754       -0.7125470530       -1.1430889750
 C         -2.6187757358       -1.6703301720       -0.9093592139
 O         -2.5703554249       -2.5514723217       -1.7887711926
 H          1.4694452201       -1.4852387677        1.6392433609
 C          1.5730808878       -1.6610344280        0.5770720743
 C          0.5122520591       -2.2157126066       -0.1244669752
 C          0.6454349095       -2.4078424358       -1.4954290574
 C          1.8207281552       -2.0616417778       -2.1373919187
 C          2.8822779105       -1.5199166511       -1.4327657029
 C          2.7535021132       -1.3112126182       -0.0660570814
 N          3.8249235006       -0.7684695641        0.6682780510
 S          4.5277724809        0.6616723826        0.1596987824
 O          5.1921665232        0.4440382786       -1.0997436289
 O          5.3623892814        1.0820906774        1.2612158366
 C          3.1729182418        1.8011201478       -0.0503076657
 C          2.7538830682        2.5343808368        1.0420538616
 C          1.6776391705        3.3944948834        0.8998218550
 C          1.0357840431        3.4972244141       -0.3247156895
 C          1.4615851271        2.7463337238       -1.4091401987
 C          2.5417103592        1.8888031472       -1.2746934850
 H          2.9080435488        1.2980574259       -2.0979951529
 H          0.9563264277        2.8263988635       -2.3583221589
 H          0.1992688607        4.1689824957       -0.4356811436
 H          1.3415794175        3.9788604218        1.7415176465
 H          3.2861302789        2.4321942519        1.9741745642
 H          3.6452637190       -0.7238068490        1.6612846742
 H          3.8038084335       -1.2494769753       -1.9224812019
 H          1.9140210550       -2.2177596845       -3.2016570167
 H         -0.1861401709       -2.8100719116       -2.0533020921
 C         -0.7664257707       -2.5519175293        0.6041985050
 H         -0.5845386371       -2.4011023681        1.6769868601
 C         -1.1766302249       -3.9940496010        0.3901433462
 C         -0.4124919577       -5.0723510338        1.0962922302
 C         -1.8138966169       -4.7480765344        1.5168330442
 H         -2.5998576845       -5.4511447595        1.2855780249
 H         -1.9580083365       -4.2261147988        2.4517694195
 H         -0.2326838977       -6.0006181224        0.5763072675
 H          0.3949235404       -4.7698905043        1.7461660964
 H         -1.5357508984       -4.2027459663       -0.6083568351
 O         -1.2638595861       -0.2623229089        2.1264376322
