  62
        -98.94118170
 C         -1.6482836700       -0.4980428102        0.9325632997
 C         -2.8781720801       -1.0578092499        0.5086999196
 C         -4.0044995700       -0.1176181397        0.3911193601
 C         -3.8199005499        1.1832546902        0.6766787206
 C         -4.8664273998        2.2505876603        0.5436921011
 C         -4.8275643999        2.8982027509       -0.8475384386
 C         -4.8057504501        1.8910631613       -1.9974371590
 H         -4.8102806201        2.4612835217       -2.9289359888
 H         -3.8661878401        1.3343652312       -1.9664469493
 C         -5.9799742501        0.9023030215       -1.9982994293
 H         -6.3682296902        0.8207243719       -3.0158021993
 H         -6.7877964601        1.2854315313       -1.3736627691
 C         -5.6177943403       -0.5133940188       -1.5455303599
 H         -6.4545399203       -1.1729669486       -1.7908855301
 H         -4.7481601803       -0.8660325486       -2.1058245102
 C         -5.3266593501       -0.6811922794       -0.0489070500
 H         -6.1427681800       -0.2516332596        0.5354993402
 H         -5.2806934802       -1.7536406895        0.1615583695
 H         -3.9291780098        3.5157583508       -0.9169531485
 H         -5.6971355498        3.5501403410       -0.9490074183
 H         -5.8469680098        1.8151122403        0.7259180810
 H         -4.6736970197        3.0165086800        1.2967366614
 O         -2.6255855498        1.6861568299        1.0797123707
 C         -1.5181112299        0.8672186997        1.2093325803
 O         -0.4865858598        1.4610416195        1.5816577004
 H          1.9655965699       -0.2933663903        0.2905001395
 C          1.5358147698       -0.9457170499       -0.4540411807
 C          0.3120894498       -1.5512042899       -0.2073866109
 C         -0.2430378104       -2.3679603194       -1.1868881512
 C          0.4247923995       -2.5771826690       -2.3793605313
 C          1.6592622395       -1.9957523691       -2.6101620012
 C          2.2188654297       -1.1714810595       -1.6407585109
 N          3.4560864697       -0.5517260295       -1.8556527707
 S          4.5183757399       -0.2709584901       -0.5962436707
 O          5.8067953398       -0.1365437600       -1.2419760708
 O          4.4219518098       -1.2901463206        0.4220649489
 C          4.0312617601        1.3132667896        0.0503790900
 C          3.9689327001        2.3801236100       -0.8238755696
 C          3.6085690603        3.6249579898       -0.3350967191
 C          3.3192671304        3.7814072093        1.0121197910
 C          3.3897726604        2.7014261590        1.8775949606
 C          3.7506616302        1.4539853391        1.3942294801
 H          3.8136263802        0.5875428189        2.0343045697
 H          3.1585720605        2.8233411186        2.9235782407
 H          3.0344883905        4.7501921592        1.3912919115
 H          3.5515510603        4.4687088201       -1.0039907287
 H          4.2046399700        2.2197029904       -1.8628016797
 H          3.9297377196       -0.8157643192       -2.7067407109
 H          2.1857884494       -2.1740044687       -3.5355317013
 H         -0.0149876707       -3.2109554087       -3.1348420315
 H         -1.2049681704       -2.8230329294       -1.0087941913
 C         -0.3782608601       -1.3141537404        1.1145912893
 H          0.2883505500       -0.6882056807        1.7234401495
 C         -0.5990495502       -2.6227390606        1.8487844988
 C          0.5871580998       -3.3188494010        2.4427194184
 C         -0.4253849900       -2.6671548413        3.3353985987
 H         -1.0857080501       -3.2970641914        3.9124658885
 H         -0.1495565499       -1.7500121015        3.8356578891
 H          0.6225507397       -4.3970022710        2.4071616780
 H          1.5526645298       -2.8465710310        2.3314892185
 H         -1.3811004003       -3.2347586104        1.4202382986
 O         -3.0556426303       -2.2751645797        0.2385146291
