  62
        -98.94353150
 C         -1.6225782130       -1.4215204305        0.5052089478
 C         -1.6477580271       -0.1071914788        1.0442170986
 C         -2.8908485762        0.6479419097        0.8613978383
 C         -3.9385025597        0.0648522706        0.2519212145
 C         -5.2902419398        0.6855749557        0.0246523006
 C         -5.3741018136        1.5525548608       -1.2390158651
 C         -4.6345058763        2.8885419811       -1.1596364590
 H         -4.9508633595        3.4809441713       -2.0204883906
 H         -4.9493704348        3.4235644442       -0.2632045389
 C         -3.1043504961        2.7651968909       -1.1792386569
 H         -2.8234052979        1.7746692608       -1.5447680942
 H         -2.6898970558        3.4926713923       -1.8805420634
 C         -2.4287964843        3.0034720797        0.1714529764
 H         -1.3554928665        2.8395671706        0.0477994234
 H         -2.5846300947        4.0395754634        0.4795743638
 C         -2.9161975270        2.0814081926        1.2966208442
 H         -2.2348335710        2.1834528704        2.1444136971
 H         -3.9185457783        2.3674195706        1.6146053606
 H         -6.4312718006        1.7558445211       -1.4253479143
 H         -4.9931546969        0.9746203759       -2.0842776190
 H         -5.9984266084       -0.1396915291       -0.0767778817
 H         -5.5713024188        1.2795034762        0.8947768357
 O         -3.8860590697       -1.2044585092       -0.2266708995
 C         -2.7208670071       -1.9596977779       -0.1651682597
 O         -2.8226556094       -3.0645788690       -0.7343173792
 H          2.1108826647       -0.9810943593        0.6155636744
 C          1.7888171789       -1.2654880720       -0.3739310400
 C          0.5700198399       -1.9043566837       -0.5457224502
 C          0.1759651386       -2.2716284997       -1.8282457954
 C          0.9900232380       -1.9973316608       -2.9115079751
 C          2.2033117947       -1.3540214883       -2.7391473570
 C          2.6084759627       -0.9886523373       -1.4599414804
 N          3.8431125331       -0.3664780645       -1.2628406759
 S          4.2510505616        0.4940116000        0.0999749817
 O          5.4804155416        1.1607376520       -0.2736752651
 O          4.3348496212       -0.3850757218        1.2399309988
 C          2.9795652003        1.7186468812        0.3488365418
 C          2.6823353979        2.5764770341       -0.6919983946
 C          1.7429021226        3.5733150145       -0.4893188124
 C          1.1237847558        3.6987982776        0.7455559376
 C          1.4288485696        2.8267339354        1.7777396304
 C          2.3658068740        1.8261075370        1.5790148627
 H          2.6263814551        1.1275031691        2.3579026653
 H          0.9367983200        2.9135020202        2.7325855472
 H          0.3999869749        4.4826168528        0.9054491956
 H          1.4962294127        4.2506531945       -1.2913403483
 H          3.1920741465        2.4636265233       -1.6350169149
 H          4.3381621243       -0.0750759168       -2.0906034599
 H          2.8362744863       -1.1407573835       -3.5866985504
 H          0.6752942341       -2.2842998274       -3.9036033310
 H         -0.7751714278       -2.7637858867       -1.9649484837
 C         -0.3105380542       -2.1726127035        0.6513199213
 H          0.1831783456       -1.7273690554        1.5264275574
 C         -0.4524632951       -3.6612366672        0.8930826682
 C          0.7067546276       -4.4059341456        1.4821935162
 C         -0.5289343382       -4.1742075180        2.2981810908
 H         -1.1775261253       -5.0122268580        2.5046504929
 H         -0.4815983411       -3.4515031134        3.0998916903
 H          0.9097734920       -5.4051244070        1.1285965139
 H          1.5929905325       -3.8395313663        1.7285190137
 H         -1.0499446880       -4.1681851817        0.1473821783
 O         -0.6738248519        0.4061942258        1.6550533053
