  62
        -98.93820748
 C         -1.5213849886       -0.9727255424        0.8975476409
 C         -2.1091761937       -0.3862430639       -0.2501526311
 C         -2.5233813937        1.0248511491       -0.1284817835
 C         -2.2524656855        1.7017592735        0.9989035231
 C         -2.6021882675        3.1226444016        1.3685571744
 C         -2.4885777127        4.1984944771        0.2830021852
 C         -1.3211116445        4.0135982536       -0.6973852589
 H         -0.7481992131        4.9416708789       -0.7504353005
 H         -0.6417986148        3.2332747982       -0.3478340357
 C         -1.7797883846        3.6582493369       -2.1128855006
 H         -2.6437266990        4.2735478262       -2.3764860764
 H         -0.9740990842        3.8998251147       -2.8105032509
 C         -2.1226577561        2.1841565235       -2.3159732887
 H         -1.2113125786        1.5881001925       -2.2134478354
 H         -2.4817402678        2.0550163151       -3.3403831530
 C         -3.1729959780        1.6154054121       -1.3466829698
 H         -3.9144093984        2.3669667976       -1.0838650481
 H         -3.6806024681        0.7873725180       -1.8493786321
 H         -3.4197657409        4.2492863268       -0.2796713391
 H         -2.3814042257        5.1542165194        0.7995259889
 H         -3.6219098885        3.1249518376        1.7664585029
 H         -1.9351074139        3.3718008296        2.1978939368
 O         -1.6074873449        1.1203874159        2.0514999198
 C         -1.2242812517       -0.2102538888        2.0269977632
 O         -0.6269058990       -0.5855597029        3.0563555769
 H          1.0617712123       -0.9465283155        0.2438877610
 C          0.8820456077       -1.6909531500       -0.5177033999
 C         -0.1629319387       -2.5900047233       -0.3434274290
 C         -0.3818509670       -3.5528586877       -1.3176426992
 C          0.4114274563       -3.5828145214       -2.4525188825
 C          1.4112632227       -2.6480835635       -2.6492869942
 C          1.6425038851       -1.6848183658       -1.6727616183
 N          2.6415519449       -0.7121676109       -1.8244441910
 S          2.4322568020        0.8129342487       -1.1646323702
 O          1.0490354748        1.2220449381       -1.1467313450
 O          3.3340816888        1.6531396938       -1.9259828668
 C          3.0663657592        0.6481479776        0.4901984132
 C          2.2876273015        1.0146047252        1.5689446170
 C          2.7994775839        0.8706892628        2.8486996307
 C          4.0805470112        0.3714720532        3.0249374993
 C          4.8559942810        0.0174231867        1.9306047490
 C          4.3464612322        0.1547900987        0.6499079655
 H          4.9155358982       -0.1085545427       -0.2258787574
 H          5.8522306317       -0.3689501261        2.0735759971
 H          4.4737785634        0.2575524669        4.0227813139
 H          2.1853947607        1.1346228573        3.6949751430
 H          1.2890106708        1.3879370134        1.3964347341
 H          3.0775117736       -0.6799187603       -2.7340746928
 H          2.0013713813       -2.6529161908       -3.5531479581
 H          0.2298270547       -4.3306453802       -3.2097526032
 H         -1.1907587975       -4.2562581715       -1.2069501350
 C         -1.0065683693       -2.4048102155        0.8935603746
 H         -0.3364344900       -2.4617701203        1.7678201010
 C         -2.0645375385       -3.4775694186        1.0916829055
 C         -3.3271557844       -3.1799931362        1.8432170304
 C         -3.3791560146       -3.4664326683        0.3739802930
 H         -3.7922434354       -4.4119757143        0.0535290448
 H         -3.5701796298       -2.6524854075       -0.3062435713
 H         -3.7049747618       -3.9231275620        2.5293606982
 H         -3.4826344628       -2.1618656508        2.1706222602
 H         -1.6190176097       -4.4513267662        1.2717894472
 O         -2.3106942036       -1.0037238785       -1.3269457905
