  62
        -98.93916318
 C         -1.4618035552       -1.4068481136        0.2413596505
 C         -2.1303317738       -0.4662905802        1.0665917661
 C         -3.1773424780        0.3319563021        0.4210285978
 C         -3.4390125440        0.1548846658       -0.8862305900
 C         -4.4710806009        0.8983549336       -1.6896774825
 C         -3.9857006714        2.2584449997       -2.2109812671
 C         -3.8496906323        3.3543387784       -1.1524343822
 H         -3.7183552824        4.2979597832       -1.6858948670
 H         -4.7791490783        3.4278220530       -0.5869915753
 C         -2.6708411972        3.1659221353       -0.1864602114
 H         -1.9629143938        2.4492127663       -0.6104367040
 H         -2.1379510624        4.1131358228       -0.0765162405
 C         -3.0688868052        2.7004630414        1.2143991681
 H         -2.1579258438        2.5510625703        1.7984289911
 H         -3.6637950928        3.4753325165        1.7025165435
 C         -3.8596258018        1.3863533502        1.2389381991
 H         -4.8761578891        1.5486404544        0.8817847262
 H         -3.9025223777        1.0314841379        2.2713784051
 H         -3.0264249220        2.1169255034       -2.7150902105
 H         -4.7057823943        2.5956277573       -2.9602230406
 H         -5.3734818606        1.0358821335       -1.0934266876
 H         -4.7138076013        0.2677293842       -2.5477301817
 O         -2.7723507947       -0.7525727582       -1.6477358778
 C         -1.7512858065       -1.5354744980       -1.1178933530
 O         -1.1997225309       -2.2733151074       -1.9552654370
 O         -1.8529385910       -0.2944858379        2.2818038473
 C         -0.3409669086       -2.2053499900        0.8760777403
 C          0.9333451209       -2.1038508910        0.0734613184
 C          1.8427499903       -3.1474916354       -0.0490259727
 C          3.0385685095       -2.9703542899       -0.7248460443
 C          3.3560544485       -1.7528797154       -1.2988406526
 C          2.4470757544       -0.7102842163       -1.1991975298
 C          1.2589232750       -0.8845760007       -0.5086133334
 H          0.5638818720       -0.0571780884       -0.4250852795
 N          2.7815722271        0.5518171806       -1.7593698005
 S          3.7076250378        1.4923160994       -0.7239444560
 O          3.8414006858        2.7832594557       -1.3593879568
 O          4.9277507308        0.7827922434       -0.4402927313
 C          2.7073981705        1.6282243397        0.7457602259
 C          1.7948704441        2.6604699919        0.8348987102
 C          0.9203539474        2.6917082027        1.9090253430
 C          0.9588680951        1.6837468886        2.8603245259
 C          1.8825211010        0.6552490998        2.7569558989
 C          2.7659547251        0.6220914854        1.6897707062
 H          3.4960135136       -0.1627393925        1.5733732897
 H          1.9053643492       -0.1281940301        3.4973107015
 H          0.2572131937        1.6900726452        3.6793368835
 H          0.2044106402        3.4939460651        1.9944456757
 H          1.7911667394        3.4199742400        0.0688889352
 H          1.9679696247        1.0855794972       -2.0334367738
 H          4.2886326820       -1.5905375857       -1.8136244304
 H          3.7326373106       -3.7929630419       -0.8048122763
 H          1.6165668986       -4.1084316675        0.3827666116
 H         -0.1572844470       -1.6806095214        1.8304604310
 C         -0.7115285731       -3.6377308775        1.2406351757
 C         -2.1330104783       -4.1127050208        1.2221341193
 C         -1.1590732145       -4.6265474774        0.2070483756
 H         -0.8213318083       -5.6491627232        0.2912216514
 H         -1.2468986969       -4.2727640480       -0.8081554462
 H         -2.4606461125       -4.7758541211        2.0089549620
 H         -2.8930419742       -3.4196921188        0.8908177376
 H         -0.0989566387       -4.0275862682        2.0473346411
