  62
        -98.93599055
 C         -2.3704399438       -1.4776626103        0.1788028000
 C         -2.4331624451       -0.2968394289       -0.5954055102
 C         -3.5181371344        0.6509236384       -0.2685095177
 C         -4.3529866320        0.3683662212        0.7473121031
 C         -5.5213473963        1.1694169107        1.2635814726
 C         -5.2984037700        2.6808334281        1.4277450815
 C         -6.0721370094        3.5225526249        0.4117675091
 H         -7.0609967550        3.0801532226        0.2747816297
 H         -6.2169483145        4.5232682365        0.8248017727
 C         -5.3957161515        3.6789155711       -0.9490267434
 H         -6.1056356856        4.1733001714       -1.6163297689
 H         -4.5309002224        4.3386694207       -0.8490596139
 C         -4.9331971571        2.3759360185       -1.6045392118
 H         -5.6755028901        1.5914615129       -1.4626698016
 H         -4.8580274917        2.5528750490       -2.6796408549
 C         -3.5589691673        1.8937568983       -1.1156587355
 H         -2.9240543542        1.6615339462       -1.9767336859
 H         -3.0473210981        2.6997281093       -0.5805994256
 H         -5.6380576847        2.9615229721        2.4260132325
 H         -4.2341908313        2.9065655698        1.3747232630
 H         -6.3804502824        0.9900534542        0.6126354063
 H         -5.7646342737        0.7229425705        2.2302988792
 O         -4.2460912027       -0.7798432363        1.4756225283
 C         -3.2662004063       -1.7184241185        1.2220816772
 O         -3.2938332373       -2.7092076247        1.9786549774
 O         -1.6320714301       -0.0340976086       -1.5323259457
 C         -1.2895038165       -2.5222888920       -0.0525316671
 C          0.0360203804       -1.9168639323        0.3401579918
 C          0.3710881768       -1.8434263704        1.6897359278
 C          1.5463964641       -1.2386536902        2.0925040416
 C          2.4082289232       -0.6857781309        1.1603392054
 C          2.0736792647       -0.7377197866       -0.1853139456
 C          0.9021775233       -1.3657848401       -0.5898781037
 H          0.6499023195       -1.3886922530       -1.6379467987
 N          2.9358654642       -0.1724114591       -1.1397164920
 S          3.5669822832        1.3543259633       -0.8461591909
 O          2.6927077484        2.1527140910       -0.0183205407
 O          3.8829612090        1.8893548054       -2.1529304520
 C          5.0888011712        1.0185050419        0.0180152242
 C          5.3683506438        1.6760980390        1.1998629582
 C          6.5654186950        1.4123982478        1.8475613649
 C          7.4577957397        0.5011870947        1.3041826785
 C          7.1632361779       -0.1495122264        0.1152312858
 C          5.9691235902        0.1107491538       -0.5377797092
 H          5.7043000384       -0.3717039255       -1.4636486887
 H          7.8595530374       -0.8577692287       -0.3041283699
 H          8.3880321369        0.2970981755        1.8104941405
 H          6.7957137480        1.9178842630        2.7716875359
 H          4.6414379909        2.3717117584        1.5885008347
 H          2.5836853192       -0.2355143550       -2.0843607922
 H          3.3205225779       -0.2015255381        1.4683196509
 H          1.7949441050       -1.1933741599        3.1420169635
 H         -0.3130015669       -2.2563711724        2.4185250636
 H         -1.5102113005       -3.3393800477        0.6470328230
 C         -1.3243261489       -3.0683195599       -1.4643796455
 C         -0.5768940869       -4.3279941358       -1.7804696812
 C         -2.0747409170       -4.3351017144       -1.7396156788
 H         -2.6167471045       -4.4198069129       -2.6696238703
 H         -2.5626859601       -4.8177339614       -0.9054010030
 H         -0.0886579897       -4.4124685770       -2.7393084158
 H         -0.0456380409       -4.8061290705       -0.9715488831
 H         -1.3657653762       -2.2967640211       -2.2230941238
