  62
        -98.93576107
 C         -2.2925593923       -1.3058219546        0.2537249523
 C         -2.5207179321       -0.3632969772       -0.7746525841
 C         -3.4414572583        0.7469139319       -0.4584232685
 C         -4.0099218431        0.7988949048        0.7595965630
 C         -4.9710908448        1.8215193520        1.3114809984
 C         -6.1121693227        2.2649639561        0.3829317467
 C         -5.9630358756        3.7018404049       -0.1199747761
 H         -6.9510577452        4.0819946425       -0.3888095468
 H         -5.5887649636        4.3194473087        0.6992209164
 C         -5.0557411894        3.8726733447       -1.3371854380
 H         -5.5557276787        3.4679736609       -2.2197387971
 H         -4.9228138326        4.9444717645       -1.5020531370
 C         -3.6767089180        3.2195787880       -1.2231143635
 H         -3.2650941746        3.3674321364       -0.2252375363
 H         -3.0082435629        3.7278966039       -1.9211984947
 C         -3.6719927240        1.7250649148       -1.5779151478
 H         -4.6014566307        1.4608169295       -2.0904229345
 H         -2.8671105863        1.5190572271       -2.2905546474
 H         -6.1958472830        1.5761699751       -0.4561809960
 H         -7.0437952874        2.2009089761        0.9474423295
 H         -5.3832145310        1.3638140257        2.2137657311
 H         -4.3997683680        2.6936329708        1.6395466465
 O         -3.7434650701       -0.1260210611        1.7281010307
 C         -2.8831647218       -1.1860322625        1.5093138644
 O         -2.7245535798       -1.9359175303        2.4952109518
 H         -0.0278142572       -0.4482563004        1.1129432038
 C          0.5608515126       -0.9205678902        0.3347270387
 C          0.0200574008       -1.9938881651       -0.3623713572
 C          0.7949536350       -2.6009350405       -1.3420901526
 C          2.0650909700       -2.1285671026       -1.6248280665
 C          2.5895733293       -1.0465618176       -0.9427505278
 C          1.8285341329       -0.4389604889        0.0474346064
 N          2.3485669467        0.6698377754        0.7405145288
 S          3.8531291007        0.5014705376        1.4693389531
 O          4.1040730178       -0.8689707314        1.8521821686
 O          3.8683835132        1.4796865996        2.5353900319
 C          5.0011245709        1.0029064996        0.2044898830
 C          6.0199889725        0.1521837916       -0.1771696872
 C          6.9075134807        0.5679711933       -1.1576335987
 C          6.7613829019        1.8200999130       -1.7347676492
 C          5.7339114460        2.6633961770       -1.3383037804
 C          4.8439819006        2.2545218201       -0.3580033245
 H          4.0341065102        2.8793011994       -0.0198077830
 H          5.6231391431        3.6361617836       -1.7897661404
 H          7.4520790142        2.1410554551       -2.4984676072
 H          7.7068881549       -0.0858452019       -1.4672628539
 H          6.0899622878       -0.8144170145        0.2956038284
 H          1.6922230950        1.0838161336        1.3867294364
 H          3.5743377168       -0.6702774220       -1.1665599682
 H          2.6532741432       -2.6076882214       -2.3924555247
 H          0.4030348207       -3.4438702985       -1.8870522052
 C         -1.3604670835       -2.4780735758        0.0131986569
 H         -1.2807688437       -3.0048770416        0.9763812532
 C         -1.9657994030       -3.4199688739       -1.0079101303
 C         -1.7035645616       -4.8931960566       -0.9318033617
 C         -3.0535284604       -4.3527503998       -0.5704092673
 H         -3.8804274836       -4.5326457701       -1.2408026050
 H         -3.3351026836       -4.3291537048        0.4727242848
 H         -1.0712254237       -5.2488437941       -0.1322127634
 H         -1.6067601111       -5.4482918866       -1.8526894050
 H         -2.0608646530       -2.9636381798       -1.9863954228
 O         -1.9781092528       -0.4371339866       -1.9076345768
