  62
        -98.93816863
 C          2.3593134395        1.1531077100       -0.5201443423
 C          3.2601679099        0.5869237305        0.4188013176
 C          3.7932768199       -0.7430400496        0.1039084079
 C          3.4034002796       -1.3487552601       -1.0320910917
 C          3.8086512096       -2.7325683202       -1.4492557512
 C          2.8099089299       -3.7800264801       -0.9379843204
 C          2.4834928704       -3.6496822495        0.5499541796
 H          1.9402667404       -2.7153512895        0.7130267294
 H          1.8001975406       -4.4630988295        0.8037067902
 C          3.7061076207       -3.6987314890        1.4772468192
 H          3.4801017111       -4.3566552987        2.3188933696
 H          4.5555860706       -4.1303569591        0.9467935091
 C          4.1101154708       -2.3454511787        2.0650717185
 H          3.2359332309       -1.8639657886        2.5108662086
 H          4.8313860311       -2.5240434983        2.8669708983
 C          4.7530817704       -1.3580948591        1.0833158379
 H          5.1574948505       -0.5256127488        1.6664486674
 H          5.5777562202       -1.8445328492        0.5584186678
 H          1.8787634097       -3.6730185804       -1.5000615801
 H          3.2180905099       -4.7725407201       -1.1383600702
 H          3.8336249992       -2.7694046207       -2.5396795912
 H          4.8043122098       -2.9447671199       -1.0640929615
 O          2.5526776492       -0.7740749605       -1.9178506516
 C          1.9931250392        0.4809899995       -1.6876753619
 O          1.2340508988        0.8549993290       -2.5997508918
 O          3.6087391402        1.1807484310        1.4754462772
 C          1.7825343995        2.5057743701       -0.1429527927
 C          0.6252050899        2.3358408304        0.8099017878
 C          0.4914629502        3.1615190409        1.9205243075
 C         -0.5833854195        3.0161774611        2.7792460779
 C         -1.5463252995        2.0527562309        2.5418692687
 C         -1.4130301398        1.2100323005        1.4430846090
 C         -0.3294134101        1.3536223302        0.5886745585
 H         -0.2382310303        0.6953718399       -0.2634171012
 N         -2.3529376098        0.1958465303        1.2030878497
 S         -2.6692536203       -0.2484213404       -0.3962986900
 O         -1.6955554703       -1.2299412205       -0.8030286699
 O         -2.7985526807        0.9347757892       -1.2150716304
 C         -4.2617747901       -1.0267637405       -0.1971569691
 C         -5.4058139003       -0.2748823207       -0.3885719190
 C         -6.6416639301       -0.8738382008       -0.2016239483
 C         -6.7125558499       -2.2069411506        0.1740732123
 C         -5.5559951297       -2.9494034104        0.3608293722
 C         -4.3170898099       -2.3565639804        0.1747793015
 H         -3.3915500698       -2.8945304902        0.2985478214
 H         -5.6144217895       -3.9865393603        0.6490472427
 H         -7.6752353198       -2.6711294207        0.3188893529
 H         -7.5421270703       -0.3000099909       -0.3501688582
 H         -5.3009843205        0.7546551592       -0.6911126494
 H         -3.2007519696        0.3040790604        1.7428350700
 H         -2.3889499192        1.9412594911        3.2069755390
 H         -0.6760409692        3.6629874115        3.6383184277
 H          1.2450954002        3.9106033410        2.1139180369
 H          2.5865876497        3.0163563604        0.4131629868
 C          1.4254355590        3.3877784596       -1.3291270729
 C          0.0301364988        3.5480225292       -1.8450968125
 C          0.6926130789        4.6810237196       -1.1235751432
 H          1.0023828287        5.5434731194       -1.6939939837
 H          0.3459044293        4.9076164400       -0.1268721932
 H         -0.0991043616        3.6102709888       -2.9150026025
 H         -0.7653224010        3.0049920994       -1.3567020520
 H          2.2112252887        3.3866576394       -2.0780461832
