  62
        -98.94579543
 C         -2.4709809753       -1.1242171484       -0.0515195780
 C         -3.0643628085       -0.2226212783        0.8638239763
 C         -3.5427801245        1.0435245943        0.3002839319
 C         -3.3989801292        1.2839711061       -1.0158709659
 C         -3.8426740718        2.5250140710       -1.7414837899
 C         -2.8273325142        3.6744440552       -1.6774946911
 C         -2.7193406060        4.3707683574       -0.3203138124
 H         -2.1414303448        5.2841507731       -0.4739937788
 H         -3.7136902121        4.6653336276        0.0171313490
 C         -2.0320783469        3.5331412371        0.7675803193
 H         -1.4716025573        2.7179411359        0.3007442057
 H         -1.3005840405        4.1500891030        1.2957273396
 C         -2.9835601511        2.9557519147        1.8165750318
 H         -2.3968774072        2.3537229806        2.5157671428
 H         -3.4427182499        3.7711935011        2.3797584139
 C         -4.0969970331        2.0685236367        1.2434063368
 H         -4.8461321040        2.6816230082        0.7436646741
 H         -4.5719011950        1.5375531000        2.0720467615
 H         -1.8453433726        3.2911562232       -1.9669332886
 H         -3.1271162060        4.4173512061       -2.4202313968
 H         -4.8011660106        2.8608920027       -1.3451194149
 H         -3.9764261902        2.2424476506       -2.7877658843
 O         -2.8267671087        0.3905585377       -1.8644716178
 C         -2.3104963826       -0.8120724497       -1.4021175646
 O         -1.7598352316       -1.5016932587       -2.2801794110
 O         -3.1799759824       -0.4613775981        2.0973556874
 C         -1.8840555069       -2.4215947727        0.4804060726
 C         -0.3818065508       -2.3291151204        0.3703394828
 C          0.4058079675       -3.2187868167       -0.3463030252
 C          1.7721036012       -3.0162066266       -0.4498910195
 C          2.3792597832       -1.9307663604        0.1547729389
 C          1.6001931621       -1.0401594178        0.8824059860
 C          0.2369463811       -1.2495908901        0.9911104949
 H         -0.3691500147       -0.5482510261        1.5526422922
 N          2.2105293883        0.0846044158        1.4878746389
 S          2.7134029180        1.2609039411        0.3883595310
 O          2.8048192985        2.4866014525        1.1522663529
 O          1.8567354950        1.2946395150       -0.7766047179
 C          4.3493385526        0.7242685031       -0.0593656377
 C          5.3135164068        0.6908402419        0.9294673352
 C          6.5903887142        0.2628164053        0.6034603096
 C          6.8794257391       -0.1201875627       -0.6981562158
 C          5.9005618099       -0.0782735644       -1.6793839780
 C          4.6203427651        0.3474730952       -1.3597233131
 H          3.8241267669        0.3894125024       -2.0859158622
 H          6.1265885880       -0.3769953300       -2.6903875949
 H          7.8736496893       -0.4541041346       -0.9497944315
 H          7.3542493265        0.2280045435        1.3633607624
 H          5.0448706646        1.0017328156        1.9251945072
 H          1.6094277779        0.5252791493        2.1717659707
 H          3.4414192799       -1.7681603104        0.0705452881
 H          2.3716688390       -3.7121961302       -1.0163188189
 H         -0.0517498060       -4.0616044396       -0.8373287667
 H         -2.1473607007       -2.4431160234        1.5482156482
 C         -2.4843545613       -3.6329010208       -0.1965685539
 C         -2.4482608900       -4.9636407907        0.4921210281
 C         -3.7444318210       -4.2242521659        0.3580212244
 H         -4.4848138972       -4.5980014095       -0.3330597039
 H         -4.1650885413       -3.7623076172        1.2393391738
 H         -2.3004142635       -5.8498135450       -0.1059240335
 H         -1.9887101581       -5.0075853928        1.4678550509
 H         -2.3766141569       -3.6083887103       -1.2744435210
