  62
        -98.94081973
 C         -2.2929804794       -0.9031617325       -0.1981843119
 C         -3.6088961436       -1.1964830524        0.2340166658
 C         -4.6726423277       -0.3516575445       -0.3240528302
 C         -4.3501934297        0.6160273689       -1.2017865127
 C         -5.3253377058        1.5834968526       -1.8065724315
 C         -5.4400581403        2.8582588035       -0.9589221437
 C         -5.6606198663        2.5914957829        0.5300753842
 H         -4.7698312885        2.1102085236        0.9405433685
 H         -5.7570865187        3.5612532826        1.0231046443
 C         -6.8929475201        1.7321142917        0.8453498582
 H         -7.4307319819        2.1851882017        1.6807900484
 H         -7.5689466778        1.7265155049       -0.0103133229
 C         -6.5754802093        0.2911929427        1.2494659198
 H         -7.4858930172       -0.1559038334        1.6572264985
 H         -5.8262831168        0.2907472668        2.0451688129
 C         -6.0815362698       -0.6251376266        0.1226998834
 H         -6.7706204161       -0.5738697546       -0.7225069569
 H         -6.0804027802       -1.6501959457        0.5044648813
 H         -6.2633790646        3.4592723245       -1.3491680411
 H         -4.5168458552        3.4317093425       -1.0708032661
 H         -4.9699128738        1.8511941980       -2.8030037411
 H         -6.2981044232        1.1037103565       -1.8945131885
 O         -3.0762683625        0.8577418991       -1.6058570220
 C         -2.0139769295        0.1179489416       -1.1060625531
 O         -0.8994895003        0.4614950675       -1.5457429124
 O         -3.8791686440       -2.1171246456        1.0512020032
 C         -1.1411707925       -1.7243537287        0.3540889079
 C         -0.1820468605       -0.8175245935        1.0844146440
 C         -0.6705827936       -0.0488109427        2.1388066264
 C          0.1580345460        0.8153850662        2.8259737335
 C          1.4905003869        0.9355878815        2.4713957998
 C          1.9917768054        0.1659469944        1.4289179236
 C          1.1581543813       -0.7127963153        0.7490113607
 H          1.5677435977       -1.2910574675       -0.0608702425
 N          3.3574582308        0.2398761914        1.0911747543
 S          3.8271549755        0.2974718291       -0.5309212330
 O          3.2634478484        1.4622438876       -1.1773805270
 O          3.5705620424       -0.9779217627       -1.1480641776
 C          5.5856283631        0.5138522672       -0.3177753286
 C          6.3507218436       -0.5892884442        0.0102424703
 C          7.7128431588       -0.4260525146        0.2054668279
 C          8.2846936033        0.8304762381        0.0705284739
 C          7.5049046983        1.9277640763       -0.2619014317
 C          6.1414349869        1.7712431775       -0.4570048765
 H          5.4971045950        2.5933024493       -0.7249142907
 H          7.9524377864        2.9026448983       -0.3700342460
 H          9.3452200646        0.9548188063        0.2224243052
 H          8.3229024103       -1.2773891676        0.4609455790
 H          5.8639095902       -1.5466138350        0.0955306057
 H          3.8232723355        0.9867521755        1.5914531090
 H          2.1374736376        1.6192855356        3.0004455507
 H         -0.2355938591        1.4074617053        3.6386366309
 H         -1.7152531140       -0.1365658200        2.4057409907
 H         -1.5955921096       -2.4065026619        1.0881227931
 C         -0.4950805680       -2.5484840723       -0.7381401940
 C          0.2364400680       -3.8092269391       -0.3903767801
 C         -1.0848834389       -3.8790465372       -1.0936075598
 H         -1.1039057392       -4.1725161845       -2.1324659847
 H         -1.9479667219       -4.2042797909       -0.5311848369
 H          1.1306132878       -4.0515324493       -0.9446737430
 H          0.2719073077       -4.0927572218        0.6506348494
 H         -0.1066760698       -1.9415448895       -1.5493611059
