  62
        -98.94478307
 C          2.0194873227        0.9469651615       -0.4627146223
 C          3.0800802922        1.2474450536        0.4289971943
 C          4.3660315430        0.6055188947        0.1388937873
 C          4.4793503872       -0.2093329706       -0.9256634555
 C          5.7277455715       -0.9268881392       -1.3620466372
 C          5.9740893046       -2.2521813138       -0.6279454231
 C          6.4262449782       -2.1168616697        0.8266746042
 H          6.7706840255       -3.1021028085        1.1473301899
 H          7.2804096843       -1.4409911583        0.8790949197
 C          5.3297246605       -1.6405522392        1.7896941603
 H          4.3510659305       -1.7720901004        1.3218730724
 H          5.3394314954       -2.2619420951        2.6880451108
 C          5.4713443239       -0.1873261111        2.2425489609
 H          4.6238308805        0.0536243352        2.8890756625
 H          6.3855376997       -0.0738913013        2.8293746894
 C          5.4974034326        0.8316255995        1.0958108879
 H          6.4526970612        0.7860779302        0.5735000092
 H          5.3778425079        1.8305743129        1.5221944931
 H          5.0609710571       -2.8505791214       -0.6715606504
 H          6.7497477525       -2.7898364337       -1.1782537671
 H          5.6075856462       -1.1405844658       -2.4263516437
 H          6.5907189433       -0.2727619348       -1.2343163950
 O          3.4407870717       -0.4655331908       -1.7636001307
 C          2.1843134422        0.0840901800       -1.5461321364
 O          1.3301795374       -0.2627312563       -2.3845216491
 O          2.9569311868        2.0185753220        1.4169466546
 C          0.6581616501        1.5615875986       -0.1827979438
 C         -0.2792515499        0.4666298261        0.2606683911
 C         -0.2249089007        0.0157339812        1.5766514022
 C         -1.0504756748       -1.0047992805        2.0101740177
 C         -1.9478810478       -1.5983845351        1.1395393409
 C         -2.0034398976       -1.1600541323       -0.1763955793
 C         -1.1815902274       -0.1276239495       -0.6077461067
 H         -1.2264112132        0.1921937122       -1.6365939831
 N         -2.9285990172       -1.7510251725       -1.0590182431
 S         -4.5271426604       -1.7285878152       -0.5574977416
 O         -4.7595125493       -2.8149950555        0.3611482856
 O         -5.3165573126       -1.7461064905       -1.7688809322
 C         -4.6993668493       -0.1683266617        0.2912501232
 C         -4.8899284060       -0.1426363146        1.6574444972
 C         -4.9474442442        1.0825991127        2.3024000197
 C         -4.8076834202        2.2536980129        1.5744082347
 C         -4.6196031915        2.2113194355        0.2012685979
 C         -4.5621301068        0.9896372007       -0.4485742622
 H         -4.4216488943        0.9204852400       -1.5153419863
 H         -4.5113319083        3.1239193630       -0.3627174494
 H         -4.8455242958        3.2062983489        2.0789298562
 H         -5.0950896696        1.1194382689        3.3696658066
 H         -4.9897262096       -1.0767813709        2.1853880739
 H         -2.8431766332       -1.4183313522       -2.0085273856
 H         -2.6021722412       -2.3949921274        1.4553017358
 H         -0.9968669078       -1.3420102452        3.0340694484
 H          0.4815591156        0.4741805894        2.2544417117
 H          0.8181781363        2.2358870361        0.6693216992
 C          0.1361906921        2.3689998039       -1.3529803709
 C         -1.0551549522        3.2563128086       -1.1510903675
 C          0.3027825243        3.8575934955       -1.3506194843
 H          0.5167826800        4.3523516409       -2.2862469147
 H          0.7956819153        4.3037592001       -0.4995159553
 H         -1.7756044899        3.3409835068       -1.9502683175
 H         -1.4861188545        3.2883926551       -0.1619256153
 H          0.2368648511        1.8615600544       -2.3048131154
