  62
        -98.93692842
 C          1.9641016766        1.0028103753        0.4195121536
 C          2.5803721975       -0.0441460643        1.1505398208
 C          4.0136657249       -0.2785934177        0.9062327122
 C          4.6592359614        0.5081193022        0.0282871151
 C          6.0959957479        0.4170247348       -0.4060672612
 C          6.2267412737       -0.4375505112       -1.6781839029
 C          6.3817251036       -1.9378516666       -1.4328542368
 H          6.3343039647       -2.4331077746       -2.4053793067
 H          7.3711790042       -2.1327642814       -1.0139211104
 C          5.3298755137       -2.5624041449       -0.5122944661
 H          4.3415397161       -2.1721298374       -0.7629465152
 H          5.3101602032       -3.6367343937       -0.7060176662
 C          5.6193229921       -2.3321850458        0.9785231218
 H          6.6360080113       -1.9560508733        1.0908829724
 H          5.5830577935       -3.2878786048        1.5057512956
 C          4.6393461412       -1.3942881747        1.6981535982
 H          3.7914831307       -1.9746508487        2.0760240089
 H          5.1357958465       -0.9642191710        2.5747980985
 H          5.3441615418       -0.2549934281       -2.2965458165
 H          7.0971544945       -0.0958791803       -2.2419241051
 H          6.4150902991        1.4354187320       -0.6371988971
 H          6.7175872609        0.0285179171        0.3950725432
 O          4.0341727886        1.5080922187       -0.6474238431
 C          2.6857011779        1.7806486086       -0.4863874128
 O          2.2831982464        2.7224193278       -1.1956405438
 O          1.9552294360       -0.7576731112        1.9823292902
 C          0.4846876396        1.2383037884        0.6771055728
 C         -0.3640258966        0.5938043912       -0.3931581316
 C         -0.3371989117        1.0387332576       -1.7117362430
 C         -1.1161542689        0.4232257691       -2.6737083796
 C         -1.9488248753       -0.6310718413       -2.3399554443
 C         -1.9836369955       -1.0832787009       -1.0269934325
 C         -1.1884937056       -0.4732010404       -0.0653603686
 H         -1.2149406790       -0.8470069022        0.9473921292
 N         -2.8190995972       -2.1542650370       -0.6563921508
 S         -3.9116552287       -1.9262210899        0.5914142207
 O         -3.2115351122       -1.7373343866        1.8351173816
 O         -4.8014034695       -3.0631608889        0.5175158956
 C         -4.7856723115       -0.4389872679        0.1376189040
 C         -5.9444429218       -0.5479854911       -0.6063290449
 C         -6.5840877516        0.6076649965       -1.0244050222
 C         -6.0495188170        1.8465142219       -0.7039401894
 C         -4.8839996464        1.9390703823        0.0410855883
 C         -4.2435301656        0.7868526984        0.4684027209
 H         -3.3374573377        0.8212410466        1.0505032682
 H         -4.4660013658        2.9011793849        0.2900898746
 H         -6.5441277726        2.7460644332       -1.0348055521
 H         -7.4927844399        0.5394337426       -1.6005226168
 H         -6.3263640666       -1.5313029727       -0.8286739597
 H         -3.2840640631       -2.5954634626       -1.4375754901
 H         -2.5600292456       -1.1075854270       -3.0915655780
 H         -1.0804567191        0.7731394665       -3.6942130886
 H          0.3160090378        1.8554949618       -1.9768520295
 H          0.2754415959        0.7179928161        1.6220983344
 C          0.1299787952        2.7019921048        0.8497040098
 C         -1.0647613337        3.0693507791        1.6754308645
 C          0.3159172299        3.3443502030        2.1899514794
 H          0.6629585141        4.3659136777        2.2272128853
 H          0.6937124129        2.7263027625        2.9918664818
 H         -1.6706520610        3.9052528855        1.3619490856
 H         -1.6207825920        2.2677559533        2.1391662782
 H          0.3478128528        3.3061307997       -0.0207724258
