  62
        -98.93873400
 C         -1.8672976192       -0.6417730914        0.8869729329
 C         -2.2124672369        0.7315222766        0.7901717575
 C         -3.6400508598        1.0418035055        0.6458703878
 C         -4.5303138702        0.0335616246        0.6350644297
 C         -6.0108048082        0.1963301403        0.4500759602
 C         -6.3995372281        0.1039734559       -1.0320136020
 C         -5.5489574970        0.9827802118       -1.9491956468
 H         -4.5217133669        0.6107606664       -1.9477281590
 H         -5.9330372592        0.8603328945       -2.9642933627
 C         -5.5481961011        2.4726205759       -1.5791225370
 H         -6.3955677234        2.6930859965       -0.9288739038
 H         -5.6783716070        3.0593201598       -2.4909763786
 C         -4.2592459836        2.9613682738       -0.9154224036
 H         -4.2787363618        4.0543340993       -0.9003171425
 H         -3.3990631464        2.6575240904       -1.5174584166
 C         -4.0291826705        2.4882241523        0.5254691496
 H         -3.1893129030        3.0584922141        0.9327625269
 H         -4.9143813822        2.7009188891        1.1284174081
 H         -6.2899683307       -0.9340385252       -1.3545891354
 H         -7.4506761897        0.3811587759       -1.1312114381
 H         -6.5155418604       -0.6003413454        0.9992245528
 H         -6.3186611543        1.1570460214        0.8583163194
 O         -4.1688112677       -1.2679158938        0.7473403752
 C         -2.8338464783       -1.6485298520        0.8548588387
 O         -2.6748964864       -2.8804808062        0.9140122667
 H          1.9827599932        0.0088904763        0.2114118469
 C          1.5217294689       -0.6050288908       -0.5466369926
 C          0.2746018006       -1.1643047080       -0.3106050251
 C         -0.3181676275       -1.9248399770       -1.3127509404
 C          0.3310028283       -2.1201147109       -2.5184670809
 C          1.5894735395       -1.5873987667       -2.7370600214
 C          2.1920705115       -0.8287873007       -1.7409565845
 N          3.4676127742       -0.2761775592       -1.9194168983
 S          4.5542438353       -0.3095185516       -0.6425075012
 O          5.8561995825       -0.2458037979       -1.2704254873
 O          4.3147032831       -1.4413607494        0.2207979387
 C          4.2576144345        1.2124522941        0.2302010597
 C          4.3116944157        2.3947130244       -0.4811488339
 C          4.0948620801        3.5881876083        0.1879749988
 C          3.8315257876        3.5795084085        1.5495492654
 C          3.7844458634        2.3843482560        2.2501889625
 C          4.0000799255        1.1869407103        1.5864006446
 H          3.9655005687        0.2348640975        2.0929903932
 H          3.5773331612        2.3789905216        3.3083915868
 H          3.6604608582        4.5093029905        2.0687199074
 H          4.1292798540        4.5204812597       -0.3523756218
 H          4.5220190423        2.3606678247       -1.5370638566
 H          3.9108401236       -0.5038794058       -2.7975072340
 H          2.1017056408       -1.7572228459       -3.6720161934
 H         -0.1411435747       -2.7087042142       -3.2908755608
 H         -1.2854395155       -2.3701143933       -1.1335919704
 C         -0.3887033334       -0.9525729725        1.0261914839
 H          0.0481404887       -0.0388386131        1.4610694747
 C         -0.0948130828       -2.0916914400        1.9925951561
 C          0.3052650080       -3.4650503129        1.5554036004
 C          1.3110324723       -2.5696513333        2.2112635495
 H          1.6228549573       -2.7985383443        3.2195454280
 H          2.0968044688       -2.1622747761        1.5908845568
 H          0.4040372941       -3.6530354439        0.4978115816
 H         -0.0930269510       -4.3031196274        2.1065106558
 H         -0.7279783154       -2.0396626146        2.8732165890
 O         -1.3584798383        1.6578288409        0.8315108331
