  62
        -98.93414113
 C         -2.6183485128       -0.1618849083        0.2092674406
 C         -2.6793252828        1.0171697067        0.9899448326
 C         -2.2839823632        2.2740228461        0.3330524949
 C         -1.8647704785        2.2351109210       -0.9435142565
 C         -1.3291275297        3.3732398445       -1.7671380126
 C          0.2054037776        3.4305049288       -1.6620716601
 C          0.7336512347        4.2801799006       -0.5078370512
 H          1.8189329581        4.1576775845       -0.4892092862
 H          0.5223777130        5.3335443175       -0.7059092615
 C          0.1714974565        3.9098384168        0.8669466367
 H          0.1338399691        2.8215494544        0.9539603646
 H          0.8672493480        4.2729464141        1.6262543317
 C         -1.2143783891        4.5161436353        1.1347747478
 H         -1.2036060426        5.0281586160        2.0992860334
 H         -1.4188473239        5.2777359798        0.3823404400
 C         -2.3775845718        3.5140139246        1.1805816226
 H         -2.4952491302        3.1401950457        2.2026416012
 H         -3.3069395111        4.0364934403        0.9297443841
 H          0.5765098900        2.4066178755       -1.5559496612
 H          0.6077372618        3.8316986507       -2.5948605143
 H         -1.6009755150        3.1633485447       -2.8037559198
 H         -1.7811382531        4.3148450659       -1.4681950812
 O         -1.8211290055        1.0818766795       -1.6627169847
 C         -2.1461456048       -0.1422305482       -1.1057287641
 O         -1.9905906061       -1.1054348750       -1.8797493278
 O         -3.0277445450        1.0153800639        2.2033613961
 C         -2.8811871216       -1.4867834086        0.9100661062
 C         -1.6764185281       -2.3627678336        0.6762157785
 C         -1.7062078979       -3.6100840966        0.0692441589
 C         -0.5271136424       -4.2785338824       -0.2178186685
 C          0.7012470422       -3.7145332705        0.0769978494
 C          0.7363802966       -2.4805889974        0.7083336834
 C         -0.4410772505       -1.8291166373        1.0234017540
 H         -0.4007412103       -0.8521053854        1.4919170449
 N          1.9935597937       -1.8439269382        0.9446431960
 S          2.3129094084       -0.7843653697       -0.3445864718
 O          1.4592283251        0.3820134140       -0.2592253392
 O          2.2596066979       -1.5450579289       -1.5662366565
 C          4.0012798079       -0.3256952315        0.0030624854
 C          4.9838360175       -1.2778319071       -0.1892142396
 C          6.2978732493       -0.9533219042        0.1061244489
 C          6.6055956257        0.3110675701        0.5869344372
 C          5.6086480276        1.2560671196        0.7741631413
 C          4.2913663395        0.9364047883        0.4824635696
 H          3.4830595549        1.6393124601        0.6088790691
 H          5.8501559458        2.2387562905        1.1461678023
 H          7.6292707753        0.5620912805        0.8157629392
 H          7.0760861946       -1.6850755602       -0.0389910140
 H          4.6957502992       -2.2426515344       -0.5718721779
 H          1.9493672903       -1.2695721875        1.7788271336
 H          1.6248524008       -4.2004608705       -0.1910436949
 H         -0.5670412767       -5.2400890385       -0.7068186150
 H         -2.6514107221       -4.0411880625       -0.2185198749
 H         -2.9112607091       -1.2222712049        1.9809357431
 C         -4.2095300670       -2.1523265624        0.5955875537
 C         -5.3929280969       -1.3363349169        0.1707794000
 C         -4.7470351262       -2.2797188219       -0.7969211491
 H         -5.2766507547       -3.1848689612       -1.0564713803
 H         -4.1546168893       -1.8735405735       -1.6009305792
 H         -6.3632819486       -1.5891983400        0.5707959752
 H         -5.2394372380       -0.2762897882        0.0277606775
 H         -4.4140422685       -2.9779258238        1.2706898957
