  62
        -98.93575855
 C         -1.6810019627       -0.5248249109       -0.2059762155
 C         -2.7883028134       -1.3263042384        0.1683207312
 C         -4.1246660546       -0.8361643137       -0.2115739164
 C         -4.2256397249        0.3351579044       -0.8625479185
 C         -5.4818860951        1.0388058227       -1.2963558327
 C         -5.9381949473        2.0462216646       -0.2273381626
 C         -6.8410771895        1.4663973734        0.8608197436
 H         -6.9826980600        2.2449495063        1.6139929428
 H         -7.8205728804        1.2432975360        0.4325752160
 C         -6.3095196698        0.2066686588        1.5493882887
 H         -6.8183822048        0.1105917767        2.5104843547
 H         -5.2445256721        0.3238682650        1.7579421677
 C         -6.5444469202       -1.0726997698        0.7326193955
 H         -7.0279477988       -1.8211325339        1.3639365517
 H         -7.2407738497       -0.8558952088       -0.0772299250
 C         -5.2774605663       -1.7272565951        0.1635001137
 H         -4.8618257491       -2.4187899092        0.9032410025
 H         -5.5494816503       -2.3312606689       -0.7088038760
 H         -5.0434723567        2.4796006936        0.2272522802
 H         -6.4793348917        2.8573073751       -0.7188932427
 H         -6.2664901371        0.3232797806       -1.5239046589
 H         -5.2314795178        1.5878375031       -2.2065942613
 O         -3.1392482741        1.0926437326       -1.1745943341
 C         -1.8470785827        0.6995757466       -0.8545712146
 O         -0.9756310491        1.5196135434       -1.1966150951
 O         -2.6659325507       -2.4067945095        0.8051640779
 C         -0.2987009184       -1.0227463410        0.1765569381
 C          0.5127121868        0.0845831542        0.7974246716
 C          0.1332165123        0.5786320220        2.0431579136
 C          0.8419683504        1.6002379570        2.6440416761
 C          1.9588267423        2.1360153924        2.0263536595
 C          2.3440091026        1.6519573449        0.7825184750
 C          1.6220262834        0.6331799468        0.1749995395
 H          1.9122009583        0.3109584954       -0.8102385725
 N          3.4702059703        2.1715437655        0.1316699486
 S          4.4247231309        1.1893582244       -0.8176251859
 O          5.7248965460        1.8269564701       -0.7970579402
 O          3.8424704651        1.0057629964       -2.1228833663
 C          4.5035959243       -0.3751564207        0.0393755730
 C          4.8846882096       -0.3856461198        1.3666605025
 C          4.9404627485       -1.5957191992        2.0386823893
 C          4.6205314715       -2.7704247078        1.3752516726
 C          4.2498428835       -2.7450864418        0.0399722639
 C          4.1887083159       -1.5364757379       -0.6356642658
 H          3.8971630291       -1.4697143790       -1.6718473956
 H          4.0038126956       -3.6597516182       -0.4759931259
 H          4.6608194035       -3.7114701707        1.9006690629
 H          5.2306864948       -1.6194270597        3.0766301551
 H          5.1348332518        0.5422693428        1.8542590608
 H          4.0073875469        2.8435811205        0.6580855359
 H          2.5170394764        2.9324934956        2.4942764826
 H          0.5299299937        1.9788631478        3.6056775001
 H         -0.7365586379        0.1568500020        2.5282551225
 H         -0.4902486825       -1.7795222237        0.9555671897
 C          0.4424198314       -1.7360559239       -0.9439182231
 C         -0.2937716305       -2.5199734949       -1.9873257227
 C          0.4158901333       -1.2550099644       -2.3623514116
 H          1.3238748818       -1.3197568701       -2.9450241647
 H         -0.1714968510       -0.3775073399       -2.5843176245
 H          0.1225824778       -3.4613025218       -2.3126001488
 H         -1.3735278095       -2.5071632592       -1.9544302467
 H          1.3793121054       -2.1598278000       -0.5942902026
