  62
        -98.94660920
 C         -2.4921549285       -0.3453508130       -0.0302420375
 C         -2.2924275894       -1.4850307695       -0.8426138528
 C         -1.6204211395       -2.6183741761       -0.2003013507
 C         -1.2425683555       -2.5252285200        1.0877738251
 C         -0.5189232702       -3.5843564565        1.8741059343
 C          1.0002312617       -3.5702606671        1.6518239639
 C          1.4652296648       -4.1443248815        0.3123726423
 H          2.5420648492       -4.3062552407        0.3918662482
 H          0.9982638135       -5.1170329040        0.1512280843
 C          1.1946301161       -3.2300788284       -0.8904055058
 H          1.0132603579       -2.2138871068       -0.5327802303
 H          2.0845755538       -3.1957562968       -1.5238552620
 C          0.0288020204       -3.6690231054       -1.7769524616
 H          0.2698938768       -4.6218921067       -2.2545031771
 H         -0.1036305384       -2.9211536919       -2.5630546475
 C         -1.3083842743       -3.8203249132       -1.0412553115
 H         -1.2995060850       -4.7198287983       -0.4260506209
 H         -2.1004073520       -3.9141898570       -1.7888280058
 H          1.4546978397       -4.1557000726        2.4549598722
 H          1.3524038800       -2.5391981863        1.7450628746
 H         -0.7164108646       -3.3785988373        2.9284329642
 H         -0.9191699516       -4.5690650071        1.6296339271
 O         -1.4971537240       -1.4295805459        1.8508358922
 C         -2.0844301521       -0.3017894353        1.3035653408
 O         -2.2114670351        0.6513340860        2.0992012567
 O         -2.6504764909       -1.5469186023       -2.0511826856
 C         -3.0718457574        0.9129435150       -0.6505811949
 C         -2.0902862945        2.0469647109       -0.4770400308
 C         -2.4660124897        3.3456789586       -0.1604806529
 C         -1.5050480002        4.3207202353        0.0473585323
 C         -0.1585972173        4.0149255790       -0.0223660217
 C          0.2270840391        2.7215640283       -0.3552991790
 C         -0.7374455984        1.7666986629       -0.6243718846
 H         -0.4284859016        0.7681202028       -0.8933247780
 N          1.5906658763        2.3539918490       -0.4282687329
 S          2.1029248139        1.1110416983        0.6040543124
 O          1.2751813559       -0.0522112664        0.4376584841
 O          2.2300175139        1.6334571587        1.9504517056
 C          3.7240276740        0.8012727615       -0.0692441068
 C          4.8249256142        1.4284598565        0.4813888737
 C          6.0738116866        1.2027370789       -0.0759370473
 C          6.1991021668        0.3600850877       -1.1699417787
 C          5.0846040706       -0.2636757420       -1.7108251402
 C          3.8334948266       -0.0414790752       -1.1580462739
 H          2.9407381142       -0.5099664367       -1.5394192270
 H          5.1848449402       -0.9207660795       -2.5596645979
 H          7.1715752772        0.1854393782       -1.6023801035
 H          6.9423676659        1.6834029468        0.3445046319
 H          4.6819856799        2.0650587881        1.3396252119
 H          2.1938567762        3.1498874112       -0.2561765558
 H          0.5893932462        4.7661033437        0.1846392240
 H         -1.8096327004        5.3262805270        0.2958075448
 H         -3.5106580577        3.5924561640       -0.0609906505
 H         -3.1753663344        0.6933891219       -1.7241331842
 C         -4.4418824287        1.2141476827       -0.0796870535
 C         -5.4845182868        1.8883198010       -0.9196383287
 C         -5.6198670914        0.4352341842       -0.5808133306
 H         -6.3783171082        0.1357664929        0.1267305758
 H         -5.4345411030       -0.2929029259       -1.3568624174
 H         -6.1558544664        2.5876013897       -0.4443390288
 H         -5.2189975292        2.1477904136       -1.9332659922
 H         -4.4056570014        1.4433503610        0.9798305370
