  62
        -98.93944669
 C         -2.3637975275       -1.2331652633       -0.0719591727
 C         -3.4103701371       -0.8331430704        0.7949566556
 C         -4.3147486418        0.2218174957        0.3077983066
 C         -4.0938442315        0.7716321055       -0.9008231648
 C         -4.8570433831        1.8294873978       -1.6703582846
 C         -5.9059272291        2.6953728291       -0.9775045465
 C         -5.3475852461        3.6684894830        0.0602793806
 H         -4.7745474576        4.4400823536       -0.4602701886
 H         -6.1883697235        4.1571721807        0.5573323698
 C         -4.4343927084        3.0534726829        1.1179968241
 H         -4.1066036840        3.8566358108        1.7836908178
 H         -3.5387247392        2.6495626701        0.6406268650
 C         -5.0720498076        1.9663525147        1.9809080186
 H         -5.9872340811        2.3489843374        2.4366450241
 H         -4.3695648446        1.7320353253        2.7851462906
 C         -5.3988016584        0.6500930413        1.2546467707
 H         -5.4770201490       -0.1394771814        2.0075222123
 H         -6.3554247480        0.7080897632        0.7411926101
 H         -6.6788297205        2.0714609424       -0.5385854330
 H         -6.3850204784        3.2888133727       -1.7609738985
 H         -5.3380965200        1.3015602817       -2.5013294887
 H         -4.0961180653        2.4770716950       -2.1179513356
 O         -3.0625984781        0.3632072733       -1.6964136975
 C         -2.1755684504       -0.6297069670       -1.3136583979
 O         -1.2967597187       -0.8713332724       -2.1647121005
 O         -3.5917899577       -1.3470390942        1.9305739003
 C         -1.4109875850       -2.3130149525        0.4158348614
 C         -0.0872179077       -1.6617644596        0.7312253058
 C          0.1191724801       -1.1018406250        1.9888870003
 C          1.2940845159       -0.4341102754        2.2797633018
 C          2.2820728528       -0.2983312425        1.3197942334
 C          2.0767491288       -0.8357833885        0.0567605693
 C          0.9081138479       -1.5304061858       -0.2249365041
 H          0.7557724293       -1.9298113404       -1.2152004534
 N          3.0642618723       -0.6814792495       -0.9333457475
 S          3.6679732945        0.8656765586       -1.1902902780
 O          2.7127424672        1.8845351469       -0.8194817823
 O          4.1223847459        0.8752584016       -2.5639950350
 C          5.0886232684        0.9383958329       -0.1169439258
 C          6.0550680505       -0.0391706313       -0.2522888871
 C          7.1694108061        0.0026956381        0.5701389639
 C          7.2999789623        1.0175020868        1.5066039723
 C          6.3232470585        1.9939264863        1.6274671371
 C          5.2052995660        1.9570314231        0.8083069871
 H          4.4177544210        2.6914281476        0.8700359192
 H          6.4263898688        2.7825988628        2.3553975464
 H          8.1680366892        1.0477676666        2.1460028189
 H          7.9310947387       -0.7547525858        0.4787386229
 H          5.9167802464       -0.8071960924       -0.9947085601
 H          2.8072133617       -1.1038497087       -1.8146224814
 H          3.1951199348        0.2326042769        1.5342245811
 H          1.4418802728       -0.0098207108        3.2612327565
 H         -0.6627952441       -1.1835744805        2.7307329496
 H         -1.8444051683       -2.6760340851        1.3571932433
 C         -1.3064996669       -3.4740317997       -0.5504553560
 C         -0.6923998733       -4.7586468126       -0.0829005249
 C         -2.1669010595       -4.6819829961       -0.3377985790
 H         -2.5689807939       -5.1853530704       -1.2042849853
 H         -2.8336103250       -4.6772174971        0.5119390739
 H         -0.0793721577       -5.3184500404       -0.7724373856
 H         -0.3569140932       -4.8039463063        0.9420520405
 H         -1.1304853391       -3.1704143695       -1.5749574363
