  62
        -98.93095678
 C         -2.2449919498       -0.5838025107       -0.2328282199
 C         -3.5482948597       -1.0487482908       -0.5405845600
 C         -4.6569528199       -0.4830511908        0.2450984099
 C         -4.3854375500        0.3999702693        1.2207319198
 C         -5.3450517701        1.0826729193        2.1631660697
 C         -6.6626361401        1.6057194991        1.5750029395
 C         -6.5725715300        2.1111983591        0.1275588195
 H         -7.0071649400        3.1110596490        0.0730378394
 H         -5.5273876400        2.1949162591       -0.1757406804
 C         -7.3225725698        1.2186299189       -0.8643141805
 H         -8.2817444699        0.9366755489       -0.4247290506
 H         -7.5338926598        1.7970208189       -1.7669343006
 C         -6.5817864297       -0.0451168310       -1.2999924604
 H         -5.7394609597        0.2219868190       -1.9442770903
 H         -7.2664793296       -0.6456115611       -1.9035725104
 C         -6.0360819698       -0.9189043009       -0.1590086302
 H         -6.7179241199       -0.9334523609        0.6875649297
 H         -5.9290092397       -1.9383865910       -0.5393776202
 H         -6.9961907202        2.4173573992        2.2237616394
 H         -7.4217535401        0.8269699491        1.6319396995
 H         -4.7786983002        1.9136246193        2.5907239697
 H         -5.5674754202        0.3913934193        2.9812625197
 O         -3.1112757001        0.7827734493        1.5178402799
 C         -2.0127455300        0.3089028094        0.8125861501
 O         -0.9237338700        0.7526990495        1.2237651102
 O         -3.7755173396       -1.9132264109       -1.4278937099
 C         -1.0926196897       -1.1376847707       -1.0496402697
 C          0.0462961003       -1.5476696406       -0.1505483096
 C         -0.1906387898       -2.5125883705        0.8253926405
 C          0.8156135801       -2.9096100604        1.6831894006
 C          2.0813445401       -2.3605585903        1.5796813707
 C          2.3337218802       -1.4084629504        0.5988862306
 C          1.3186810202       -1.0097944205       -0.2598225495
 H          1.5309575003       -0.2503950806       -0.9920492995
 N          3.6334892402       -0.8938488003        0.4462727907
 S          3.9341585601        0.6562533396       -0.1393544093
 O          3.3869798800        1.6618688097        0.7441436805
 O          3.5365010003        0.7271786495       -1.5225043994
 C          5.7154039501        0.6521329498       -0.0342312891
 C          6.3464156700        1.3243857099        0.9947232609
 C          7.7300033100        1.2845738199        1.0731732310
 C          8.4547723501        0.5744901899        0.1281739611
 C          7.8074064702       -0.0946263302       -0.9001601789
 C          6.4249798203       -0.0571212703       -0.9850453590
 H          5.8793386404       -0.5540172004       -1.7699940790
 H          8.3744559404       -0.6437731902       -1.6344053288
 H          9.5310413401        0.5443297400        0.1919162813
 H          8.2358363898        1.8064673700        1.8694934410
 H          5.7419397699        1.8686820199        1.7025917408
 H          4.2149889401       -1.0761785302        1.2532574108
 H          2.8673139101       -2.6658859103        2.2537825908
 H          0.6139251301       -3.6495370104        2.4433620706
 H         -1.1830741298       -2.9348337306        0.9112517104
 H         -1.5021095796       -2.0518365508       -1.5130485497
 C         -0.6567808896       -0.2323383308       -2.1920070097
 C         -1.6058913796        0.7383465491       -2.8264509599
 C         -0.4544601397        1.2411640893       -2.0108289198
 H          0.3787047803        1.7084577493       -2.5165351398
 H         -0.6509743198        1.6560917293       -1.0340978199
 H         -1.5728009995        0.8627061891       -3.8983238599
 H         -2.5983847997        0.8162360891       -2.4065337000
 H          0.0347404405       -0.7320757308       -2.8641848496
