  62
        -98.93361963
 C          1.8768403031        0.7145885351        0.7556493867
 C          2.0791665258        0.1804336729       -0.5401221876
 C          2.3192104302       -1.2672115144       -0.5984024598
 C          2.2636595126       -2.0035144921        0.5249486703
 C          2.4542645718       -3.4934374309        0.6189419832
 C          3.9236060648       -3.9317360590        0.6954795079
 C          4.7121702139       -3.7985658742       -0.6080380192
 H          5.6510691071       -4.3382717644       -0.4697829007
 H          4.1666005243       -4.2928757739       -1.4122596421
 C          5.0291075106       -2.3518945671       -1.0117796685
 H          4.8950090188       -1.6955427877       -0.1488820482
 H          6.0770077163       -2.2785561748       -1.3109443945
 C          4.1880714021       -1.8187814489       -2.1717300910
 H          4.4680428649       -0.7772411334       -2.3475800614
 H          4.4108991115       -2.3866660215       -3.0776017350
 C          2.6739994423       -1.8652776086       -1.9262020570
 H          2.3109133320       -2.8908309466       -1.9904028354
 H          2.1791689138       -1.2702088310       -2.6976026383
 H          4.4175136798       -3.3555915687        1.4813363390
 H          3.9340485906       -4.9818317238        0.9964757314
 H          1.9696413057       -3.9766959962       -0.2299804579
 H          1.9491855403       -3.8126217907        1.5333712826
 O          2.0053731783       -1.4593346596        1.7456584180
 C          1.8241621016       -0.0941321727        1.8896288887
 O          1.6296105021        0.2759327505        3.0679502738
 O          2.0663304263        0.8648599670       -1.5943273152
 C          1.6248912663        2.2065111509        0.9518520479
 C          0.4881319545        2.5911909728        0.0342778695
 C          0.5028768369        3.4788191953       -1.0328301817
 C         -0.6284688085        3.6616627802       -1.8122604643
 C         -1.7909501671        2.9583920073       -1.5670405242
 C         -1.8233657619        2.0704601834       -0.4970919778
 C         -0.7025143205        1.9151308886        0.2970789828
 H         -0.7422290926        1.2164272605        1.1222586535
 N         -2.9876483511        1.3393868480       -0.1972189423
 S         -2.7991531691       -0.2294275787        0.4006047311
 O         -2.6091549686       -0.1597717297        1.8287496570
 O         -1.7896917268       -0.9402578111       -0.3524201810
 C         -4.4186162833       -0.8920097811        0.0528300271
 C         -5.4646165649       -0.5463844754        0.8880058096
 C         -6.7336015216       -1.0265891169        0.6063723801
 C         -6.9348628189       -1.8397713048       -0.4993014783
 C         -5.8753679189       -2.1798148973       -1.3267764562
 C         -4.6036232524       -1.7010549308       -1.0519756726
 H         -3.7479725142       -1.9425619733       -1.6621823544
 H         -6.0336893032       -2.8146022263       -2.1836120969
 H         -7.9232632478       -2.2129245122       -0.7160019675
 H         -7.5589047195       -0.7661816316        1.2491212849
 H         -5.2564025721        0.0795941696        1.7399353989
 H         -3.6666327145        1.3674304559       -0.9462637048
 H         -2.6602017015        3.0865640996       -2.1938732276
 H         -0.5904934183        4.3519002670       -2.6415559313
 H          1.3947765004        4.0157362276       -1.2983825123
 H          1.2347103685        2.2953136573        1.9801612328
 C          2.9569275657        2.9401715813        0.9561750720
 C          3.7252747404        3.3537577235       -0.2597605545
 C          3.1503022969        4.3957988334        0.6546018175
 H          3.8357310614        4.9470646670        1.2815031294
 H          2.2995235271        4.9731244568        0.3328239459
 H          4.7952834767        3.2018277050       -0.2487751150
 H          3.2797642084        3.1693077072       -1.2234118248
 H          3.5587428561        2.5486072352        1.7746642210
