  62
        -98.94102142
 C         -1.9959635479       -0.3254312803        0.0491254730
 C         -3.0702205415       -1.0932944036        0.5698169280
 C         -4.3112255737       -0.3652475762        0.8623766831
 C         -4.3481787979        0.9667439707        0.6790765236
 C         -5.5615065164        1.8265085260        0.8804104577
 C         -6.3716189693        1.9547341209       -0.4174212416
 C         -6.6549834310        0.6188748205       -1.1048553259
 H         -7.2570326688        0.8308568013       -1.9911202127
 H         -5.7124046238        0.1900861573       -1.4530087187
 C         -7.3835521937       -0.4066518190       -0.2250033700
 H         -7.8497995333        0.0973678691        0.6223312604
 H         -8.1839957190       -0.8641906991       -0.8102563102
 C         -6.4992733296       -1.5451157036        0.2871667582
 H         -5.9602666866       -1.9954162553       -0.5503856861
 H         -7.1487832303       -2.3163699690        0.7095660795
 C         -5.4801779524       -1.1629309982        1.3679251686
 H         -5.9852150197       -0.6345280295        2.1790621660
 H         -5.0590787900       -2.0890068629        1.7702420428
 H         -7.3143037587        2.4547589097       -0.1876852438
 H         -5.8133527573        2.5859228927       -1.1128975615
 H         -6.1798070480        1.3958601671        1.6657401243
 H         -5.2321781785        2.8190094938        1.1926886463
 O         -3.2817896001        1.6795773676        0.2397562498
 C         -2.0814791228        1.0605559055       -0.0945535414
 O         -1.2072217750        1.8519839896       -0.4920370639
 H          1.2501038257        0.4631410280       -1.4528311926
 C          1.3831412254        0.3557490477       -0.3877154836
 C          0.4684182772       -0.3791667752        0.3497270349
 C          0.6474454992       -0.4765999163        1.7265630184
 C          1.7077411079        0.1540732538        2.3495118639
 C          2.6135618582        0.8951049318        1.6115313304
 C          2.4426488980        0.9996199552        0.2377978737
 N          3.3655652316        1.7471575404       -0.5146855686
 S          4.9901774696        1.4318727716       -0.2728450376
 O          5.4456511546        2.0991287672        0.9211031960
 O          5.6437737340        1.8205719228       -1.5027757447
 C          5.0717596226       -0.3363962685       -0.0483633664
 C          4.7483851667       -1.1400906000       -1.1239156740
 C          4.7444206392       -2.5149787071       -0.9566006786
 C          5.0572163550       -3.0603520315        0.2793976728
 C          5.3836229069       -2.2404411956        1.3480445089
 C          5.3897837935       -0.8640492474        1.1860982826
 H          5.6376261688       -0.1912831279        1.9905773542
 H          5.6286353857       -2.6675970031        2.3070746180
 H          5.0471282127       -4.1311287772        0.4087583186
 H          4.4936503708       -3.1555804872       -1.7868700812
 H          4.5166876043       -0.6819299700       -2.0720759366
 H          3.1406323813        1.8052941326       -1.4966488563
 H          3.4404361463        1.4051064244        2.0787078802
 H          1.8300100586        0.0720863694        3.4188589895
 H         -0.0647635551       -1.0484151338        2.3054917021
 C         -0.7128676990       -1.0676829581       -0.2827289004
 H         -0.8360602644       -2.0462036119        0.2095710807
 C         -0.5161759010       -1.3550314165       -1.7638918803
 C         -1.6909271389       -1.6545845312       -2.6450275281
 C         -0.9074089227       -0.3935610832       -2.8444800177
 H         -0.2733670278       -0.3198126598       -3.7165557269
 H         -1.3521812016        0.5443137210       -2.5511033854
 H         -1.6002137024       -2.4414842216       -3.3784555784
 H         -2.6744879694       -1.5791401688       -2.2044400211
 H          0.3797206159       -1.9426065175       -1.9407705427
 O         -2.9926888617       -2.3328157438        0.7807100481
