  62
        -98.94025560
 C          2.4851176292        1.1254353691        0.0387482828
 C          2.6627815136        0.0115395495       -0.8165337113
 C          4.0501643980       -0.4418411130       -0.9932561544
 C          5.0447167288        0.2187624825       -0.3726634342
 C          6.4929925126       -0.1722930393       -0.4177764880
 C          6.8479776583       -1.1167079336        0.7394940384
 C          5.8811314702       -2.2902383883        0.8981811788
 H          6.2466088877       -2.9029109645        1.7251459218
 H          4.9003507344       -1.9079843650        1.1905908968
 C          5.7296147587       -3.1621471590       -0.3560875517
 H          5.7690587084       -4.2122681192       -0.0592633373
 H          6.5658301541       -2.9851954746       -1.0334009142
 C          4.4148639421       -2.9624544300       -1.1124724729
 H          3.5744705293       -3.0452094976       -0.4183563930
 H          4.3164503040       -3.7699055069       -1.8429171189
 C          4.2787419820       -1.6378374646       -1.8739305809
 H          5.1519636167       -1.4872513670       -2.5118318953
 H          3.3935770325       -1.7112721806       -2.5125811098
 H          7.8590149690       -1.4950861647        0.5784544566
 H          6.8438183507       -0.5419404823        1.6685089301
 H          6.7046850346       -0.6524692223       -1.3710020256
 H          7.0964004508        0.7331042506       -0.3345873443
 O          4.8353270768        1.3016860955        0.4196973461
 C          3.5546639561        1.7725525991        0.6565917727
 O          3.4998877803        2.7547539950        1.4245578444
 H         -1.4640975241        0.8873398067       -0.4446813662
 C         -1.0620565200        0.3087123094        0.3697417751
 C          0.2093598141        0.5613762128        0.8581838684
 C          0.6824920905       -0.2118395890        1.9159575116
 C         -0.0929396206       -1.2173345762        2.4587779994
 C         -1.3642249766       -1.4639571338        1.9705330617
 C         -1.8472597248       -0.6970925979        0.9175563440
 N         -3.1227452186       -0.9403107752        0.3836189388
 S         -4.0273985799        0.3633927462       -0.1900970601
 O         -3.6121952549        0.6717236273       -1.5351332835
 O         -3.9840431673        1.4534206146        0.7586872186
 C         -5.6532818739       -0.3693596261       -0.2178349127
 C         -5.9789006981       -1.2147689229       -1.2619564951
 C         -7.2290879588       -1.8122749256       -1.2748015145
 C         -8.1277993308       -1.5566440664       -0.2494800605
 C         -7.7877300860       -0.7044063306        0.7902069575
 C         -6.5382098638       -0.1045713767        0.8100995079
 H         -6.2325653506        0.5703489082        1.5933419192
 H         -8.4897018480       -0.5051444511        1.5837968525
 H         -9.1004683672       -2.0224862841       -0.2626649462
 H         -7.4980814024       -2.4733694645       -2.0827756149
 H         -5.2517126888       -1.3762760832       -2.0406726343
 H         -3.6796635679       -1.5568967403        0.9592300126
 H         -1.9719581537       -2.2482941891        2.3955431921
 H          0.2915096287       -1.8106893641        3.2749800594
 H          1.6729191266       -0.0125975898        2.3038155693
 C          1.0886461450        1.6564071554        0.3043482111
 H          1.1966632683        2.4291351903        1.0806369496
 C          0.5293051491        2.3024674691       -0.9458384817
 C         -0.4866124757        3.3983294439       -0.8386001373
 C          0.9125347800        3.7128926581       -1.2735814384
 H          1.0856930259        3.9737069706       -2.3068049544
 H          1.5628390384        4.2231118587       -0.5777218358
 H         -0.7943632788        3.6995223880        0.1518185727
 H         -1.2801946575        3.4370197640       -1.5703194623
 H          0.4377975059        1.6038832878       -1.7704306454
 O          1.7150444989       -0.5767253697       -1.4000097204
