  62
        -98.94313453
 C          0.1979850914        1.9468813074       -0.2285306135
 C          1.4096261087        2.2166776983        0.4465435734
 C          2.5797346957        1.4410030744        0.0122280118
 C          2.4398526105        0.5466330713       -0.9829882044
 C          3.5098907685       -0.3934310633       -1.4624724003
 C          3.6436359962       -1.5804619444       -0.4858040698
 C          4.9813793290       -1.6449319741        0.2526902319
 H          4.8716543180       -2.3776807610        1.0553446056
 H          5.7477605133       -2.0157187710       -0.4317305896
 C          5.4821967967       -0.3251364213        0.8468730587
 H          5.9446931559        0.2776714499        0.0636656945
 H          6.2738451240       -0.5757591248        1.5561869788
 C          4.4282442597        0.5274500053        1.5652660495
 H          3.5977315196       -0.0931209966        1.9062079174
 H          4.8879605915        0.9595204340        2.4567564444
 C          3.8764719146        1.6970114729        0.7277862862
 H          3.6674634254        2.5377170519        1.3960848472
 H          4.6345741660        2.0257829833        0.0114414116
 H          2.8298397166       -1.5265248713        0.2432080374
 H          3.5168926650       -2.5184931434       -1.0306600364
 H          4.4556099389        0.1372019805       -1.5489852743
 H          3.2152867827       -0.7463992860       -2.4510174461
 O          1.2655306732        0.3393434883       -1.6325139965
 C          0.1094550196        1.0065844943       -1.2551125721
 O         -0.9058017371        0.6848371071       -1.8990061009
 O          1.5057566285        3.0627776150        1.3788453368
 C         -1.0734656874        2.6266258977        0.2378989834
 C         -2.0848813921        1.6049938250        0.7020782264
 C         -3.4553328406        1.8368196560        0.6596292207
 C         -4.3443934107        0.8765168832        1.1097071474
 C         -3.8939914341       -0.3419821826        1.5853581804
 C         -2.5260780802       -0.5842021122        1.6282923787
 C         -1.6388697312        0.3949136636        1.2141632335
 H         -0.5805545422        0.1921588282        1.2771422969
 N         -2.0108915375       -1.8119549337        2.0801103070
 S         -0.7412844247       -2.5213133623        1.2593532685
 O         -0.7652969270       -3.9012940531        1.7038924725
 O          0.4908994790       -1.8163105572        1.5181409414
 C         -1.1246700599       -2.4750479810       -0.4829959256
 C         -2.4335733625       -2.5253425418       -0.9169563783
 C         -2.6867810522       -2.5347456709       -2.2786892297
 C         -1.6354749362       -2.5065210019       -3.1800691043
 C         -0.3268600118       -2.4724454229       -2.7288736141
 C         -0.0683093927       -2.4576667289       -1.3689097436
 H          0.9352984413       -2.4132989211       -0.9786000116
 H          0.4933891714       -2.4426832125       -3.4282112731
 H         -1.8364316094       -2.5044803356       -4.2398241927
 H         -3.7054516591       -2.5566729874       -2.6313806037
 H         -3.2422127860       -2.5441041516       -0.2051268232
 H         -2.7039237831       -2.4995691539        2.3381651071
 H         -4.5894120975       -1.0965020779        1.9208103486
 H         -5.4049400637        1.0735115643        1.0761112193
 H         -3.8258891979        2.7719315216        0.2724181957
 H         -0.7794597683        3.2370461145        1.1058657195
 C         -1.6218511781        3.5442194977       -0.8374681388
 C         -2.2905223941        4.8351891796       -0.4724846416
 C         -0.9282970110        4.8472949961       -1.0958248756
 H         -0.8263845524        5.1849068248       -2.1161407471
 H         -0.0805907051        5.0869485945       -0.4702910421
 H         -3.1266846310        5.1687965332       -1.0684479615
 H         -2.3654533967        5.0837509268        0.5755817786
 H         -1.9948337510        2.9967711430       -1.6955401667
