  62
        -98.93653063
 C          2.1577941005        0.9698235998       -0.1011723906
 C          2.8887590203        0.2761512894        0.8909006192
 C          3.7171012603       -0.8416727805        0.4192815989
 C          3.7104597904       -1.1685090801       -0.8858170612
 C          4.4509084903       -2.3098263299       -1.5319355315
 C          5.9893744803       -2.2277194700       -1.5042390414
 C          6.6410948702       -2.9628245604       -0.3264251916
 H          5.9616238201       -3.7424993205        0.0202070681
 H          7.5411941602       -3.4678697704       -0.6826844317
 C          7.0604324102       -2.0868017709        0.8580951788
 H          7.2653542400       -2.7452165712        1.7050758186
 H          7.9914174202       -1.5723013609        0.6094296790
 C          6.0520045502       -1.0225855709        1.2912727890
 H          6.0629848303       -0.1941978407        0.5789461093
 H          6.3802126902       -0.6106831213        2.2477421992
 C          4.6012606802       -1.5260319509        1.4209988787
 H          4.5563442501       -2.6073160708        1.2981293784
 H          4.2067265001       -1.2754956012        2.4080500588
 H          6.3460188404       -2.6841970997       -2.4288705315
 H          6.2983476004       -1.1829681600       -1.5201975010
 H          4.1301231002       -3.2444853100       -1.0660823119
 H          4.1135596404       -2.3220776695       -2.5703081516
 O          2.9614259405       -0.4975689097       -1.8031261210
 C          2.1775602205        0.5885168302       -1.4430282708
 O          1.5575911207        1.1096243006       -2.3879491206
 O          2.8411691603        0.5682042890        2.1175122993
 C          1.2952660805        2.1494770597        0.3079591997
 C         -0.1542439895        1.8728770699       -0.0093647905
 C         -0.9843950994        2.7805315902       -0.6529259003
 C         -2.3079947294        2.4622880704       -0.9051778705
 C         -2.8323559595        1.2424817303       -0.5210204709
 C         -2.0157183696        0.3327496200        0.1387283388
 C         -0.6918339596        0.6556631398        0.3924035290
 H         -0.0561226297       -0.0543522704        0.9082768289
 N         -2.5362871697       -0.9140028501        0.5277788184
 S         -3.9806534798       -0.9417781602        1.3842276483
 O         -4.1571604498        0.2616936395        2.1635379386
 O         -3.9583263199       -2.1867573105        2.1208566979
 C         -5.2279933997       -1.0395054297        0.1177551181
 C         -6.2440748496       -0.1049501996        0.0764348283
 C         -7.2078084596       -0.2068628093       -0.9148743518
 C         -7.1390810896       -1.2361824790       -1.8411302121
 C         -6.1137786796       -2.1685788390       -1.7837075523
 C         -5.1479354197       -2.0730966994       -0.7947690422
 H         -4.3370407298       -2.7777160195       -0.7138573124
 H         -6.0633983496       -2.9677469188       -2.5056155226
 H         -7.8888815395       -1.3127410487       -2.6126392322
 H         -8.0059784595        0.5164106108       -0.9610233516
 H         -6.2533812696        0.6815094001        0.8141615686
 H         -1.8548068598       -1.5199161903        0.9612963382
 H         -3.8602505795        0.9895839704       -0.7227312711
 H         -2.9395357493        3.1745885006       -1.4137021603
 H         -0.5949013793        3.7361145603       -0.9625551699
 H          1.3935670304        2.2169744494        1.4022380597
 C          1.8208918007        3.4292558399       -0.3071693299
 C          1.6106945207        4.7417601597        0.3850103506
 C          2.9754584407        4.1245127096        0.3476392305
 H          3.7301974807        4.5740536097       -0.2800208793
 H          3.3665212105        3.6885981493        1.2556095404
 H          1.4305328508        5.6195060599       -0.2170171392
 H          1.0760454206        4.7321728194        1.3228851505
 H          1.7984057207        3.4092572902       -1.3908568899
