  62
        -98.94608905
 C          1.1043474356        1.5297806235       -0.2163959010
 C          1.1917052860        0.1222646710       -0.3572555794
 C          2.2841400446       -0.5263183664        0.3813832620
 C          3.0831647992        0.1974380697        1.1837279768
 C          4.2132145693       -0.3301693609        2.0258284232
 C          5.5348879882       -0.5004133829        1.2638303557
 C          5.5741605038       -1.6714736632        0.2811684839
 H          6.6168767674       -1.8069165499       -0.0129174944
 H          5.2589475809       -2.5818477021        0.7920021985
 C          4.7268746932       -1.4668714471       -0.9824074245
 H          4.4885188280       -0.4065874099       -1.0924403090
 H          5.3075606307       -1.7580918864       -1.8604718320
 C          3.4269365787       -2.2706971828       -1.0109688578
 H          3.6574455693       -3.3380782143       -1.0312978703
 H          2.8902046350       -2.0217486273       -1.9294760896
 C          2.4898097430       -1.9962297107        0.1724051426
 H          1.5141043966       -2.4339407442       -0.0505335390
 H          2.8802880091       -2.4568404217        1.0800915426
 H          5.7529611039        0.4291331757        0.7329596681
 H          6.3212963350       -0.6506228734        2.0071842845
 H          4.3677963759        0.3962026368        2.8268779091
 H          3.9224717632       -1.2811673036        2.4736777829
 O          2.9347769233        1.5403747970        1.3372118014
 C          1.9641435613        2.2319890312        0.6334476571
 O          1.9670687547        3.4630010569        0.8434835771
 O          0.4179468036       -0.5814670838       -1.0582981502
 C          0.0613605757        2.3848890980       -0.9213640297
 C         -1.2336667183        2.3823843727       -0.1452976745
 C         -1.8044247446        3.5652212862        0.3091658756
 C         -2.9832903973        3.5422017252        1.0334834007
 C         -3.6036167308        2.3420761134        1.3312973291
 C         -3.0381603987        1.1542530365        0.8817294209
 C         -1.8727641034        1.1828273557        0.1319451180
 H         -1.4387986027        0.2583227063       -0.2105481739
 N         -3.6363725726       -0.0852609043        1.1527376791
 S         -2.6670848073       -1.4172000041        1.4608399233
 O         -3.5314136813       -2.3255338573        2.1907050794
 O         -1.4483759768       -1.0440938799        2.1434744994
 C         -2.3205635574       -2.1418415611       -0.1270975908
 C         -1.3040420550       -3.0725082071       -0.1896692588
 C         -1.0266061387       -3.6854342257       -1.4001882304
 C         -1.7706523247       -3.3595118013       -2.5225794134
 C         -2.7931120001       -2.4279426402       -2.4413699228
 C         -3.0766895829       -1.8122291118       -1.2326623274
 H         -3.8563181982       -1.0738332022       -1.1426316727
 H         -3.3668303339       -2.1718609118       -3.3179011876
 H         -1.5471542164       -3.8305898565       -3.4670133586
 H         -0.2262913441       -4.4056033437       -1.4653169876
 H         -0.7430148379       -3.2856152967        0.7072303501
 H         -4.4374035349       -0.0555252124        1.7664515622
 H         -4.5136659580        2.3218479845        1.9115371502
 H         -3.4168895559        4.4671247081        1.3826198836
 H         -1.3084030567        4.5035711044        0.1083673891
 H          0.4572923607        3.4097170645       -0.9088597148
 C         -0.1807206727        1.9789315732       -2.3625480422
 C         -0.7638957416        2.9809596559       -3.3110338988
 C          0.6704984047        2.5673148700       -3.4452926951
 H          0.9537777212        1.9382425630       -4.2755716145
 H          1.4347369605        3.2731614236       -3.1528472774
 H         -1.4692158109        2.6374243898       -4.0517193181
 H         -0.9714612505        3.9696887131       -2.9305862667
 H         -0.4804884270        0.9451972832       -2.4704813033
