  62
        -98.94322544
 C         -2.3841608203       -0.4472375266        0.1102571577
 C         -3.4372859895       -0.3481062349        1.0510223679
 C         -4.4518459110        0.6769079855        0.7743777238
 C         -4.3153426881        1.4601161511       -0.3114750590
 C         -5.3019159142        2.5058078445       -0.7420922642
 C         -6.3458126627        1.9213511548       -1.7041547090
 C         -6.9833997454        0.6228072763       -1.2098743443
 H         -7.7238767797        0.3205005045       -1.9536399175
 H         -6.2214618897       -0.1594548147       -1.1791409552
 C         -7.6551616551        0.7289267694        0.1663433893
 H         -7.8373250261        1.7761890703        0.4100623036
 H         -8.6270313495        0.2329456883        0.1209601248
 C         -6.8733168329        0.0725989876        1.3057314359
 H         -6.6083246385       -0.9503834276        1.0266632869
 H         -7.5290655064        0.0137970283        2.1785340498
 C         -5.5950225265        0.7992989589        1.7423691886
 H         -5.8189936786        1.8487064766        1.9442521008
 H         -5.2510100504        0.3362835800        2.6719468449
 H         -7.1223663544        2.6708188608       -1.8674719455
 H         -5.8598578244        1.7209587225       -2.6618266611
 H         -5.7934969010        2.9184120063        0.1367423683
 H         -4.7576475985        3.3028609758       -1.2512336727
 O         -3.2749272331        1.3540725636       -1.1766618028
 C         -2.2873383708        0.3968224870       -0.9958789310
 O         -1.4015174398        0.4023016547       -1.8712003857
 H          1.0312037000       -1.7502858873       -1.1277942735
 C          1.1171089283       -1.0606731418       -0.3026119707
 C          0.0271703986       -0.8237976863        0.5184608223
 C          0.1745035550        0.0711436610        1.5758241923
 C          1.3755026573        0.7166701491        1.7943471551
 C          2.4583292921        0.4870086359        0.9625993356
 C          2.3254977688       -0.4074413283       -0.0892161406
 N          3.4181506788       -0.6392195092       -0.9407546575
 S          4.9096894597       -0.9944596342       -0.2611311878
 O          5.6197931715       -1.7399561286       -1.2774590581
 O          4.7643034161       -1.6389833658        1.0234718526
 C          5.6866871008        0.5951024401       -0.0619540394
 C          6.1449563290        0.9859731895        1.1808676827
 C          6.7579683823        2.2224976610        1.3109001391
 C          6.9020076337        3.0412658310        0.2013908626
 C          6.4390052772        2.6326287281       -1.0406055447
 C          5.8261304589        1.3974397096       -1.1774047336
 H          5.4562866003        1.0424429611       -2.1249078741
 H          6.5529806673        3.2720340190       -1.9012105554
 H          7.3785617738        4.0033402308        0.3047677258
 H          7.1195050831        2.5415781113        2.2752722477
 H          6.0072940053        0.3180494005        2.0163466913
 H          3.2126509432       -1.2568628398       -1.7124340443
 H          3.3973778356        0.9907699779        1.1235523192
 H          1.4716219734        1.4081504537        2.6177253213
 H         -0.6718632297        0.2525638826        2.2243399977
 C         -1.3089373024       -1.4973815661        0.3267583976
 H         -1.5743278457       -1.9941444028        1.2715595472
 C         -1.3318119578       -2.5249417513       -0.7845213028
 C         -0.7625805822       -3.8919131110       -0.5520638984
 C         -2.2454084493       -3.7060094818       -0.6631614035
 H         -2.7455998351       -4.0645135951       -1.5503508576
 H         -2.8402998256       -3.7842054925        0.2350416013
 H         -0.2454043242       -4.3822873773       -1.3632829975
 H         -0.3475905031       -4.1004574786        0.4226232202
 H         -1.2183332918       -2.0827925023       -1.7680985281
 O         -3.5220995866       -1.0800162585        2.0739009641
