  62
        -98.94045578
 C          2.4752671392        1.1886940666        0.0201555390
 C          2.4654970462       -0.0219971882       -0.7130198247
 C          3.7833715693       -0.6180888222       -0.9778728254
 C          4.8915890460        0.0115093746       -0.5461740235
 C          6.2899482109       -0.5119511307       -0.6981237336
 C          6.7011399152       -1.3544873798        0.5175746756
 C          5.6707843346       -2.4125100607        0.9124598905
 H          6.0800060971       -2.9641411484        1.7615540974
 H          4.7626561632       -1.9145566798        1.2600881739
 C          5.3086138743       -3.3957969029       -0.2092883326
 H          5.2995234579       -4.4076315227        0.2012475617
 H          6.0724481144       -3.3684487336       -0.9871511837
 C          3.9351692952       -3.1599677945       -0.8409098314
 H          3.1757277668       -3.0923658171       -0.0574619371
 H          3.6905597839       -4.0284160425       -1.4584124771
 C          3.8151075439       -1.9173540580       -1.7323741387
 H          4.6175389838       -1.9154442002       -2.4729589799
 H          2.8589625283       -1.9787968398       -2.2608477073
 H          7.6546307089       -1.8372698692        0.2963053871
 H          6.8477465895       -0.6853187025        1.3684701650
 H          6.3518074235       -1.1091461563       -1.6056159862
 H          6.9677666626        0.3386614070       -0.7859367732
 O          4.8603059393        1.1870486086        0.1325178381
 C          3.6565250895        1.7974102534        0.4432274795
 O          3.7679191699        2.8577699778        1.0912511614
 O          1.4130519667       -0.5796242001       -1.1228561252
 C          1.1659317969        1.8790244689        0.3543938867
 C          0.2419234859        0.9336457468        1.0831370989
 C          0.7429332479        0.1802447902        2.1419515345
 C         -0.0695166587       -0.7004467966        2.8284303835
 C         -1.3997124350       -0.8473177207        2.4765011689
 C         -1.9164858001       -0.0840265079        1.4366874046
 C         -1.0977860599        0.8044217284        0.7524214046
 H         -1.5221364067        1.3781169050       -0.0537263563
 N         -3.2793159666       -0.1747307941        1.1025392710
 S         -3.7700092798       -0.0260612869       -0.5058219842
 O         -3.0560410562       -0.9616728006       -1.3452111217
 O         -3.7059850424        1.3613542910       -0.8895416441
 C         -5.4760385605       -0.5224520852       -0.3452512882
 C         -6.3958380805        0.4036283077        0.1091637822
 C         -7.7172026704        0.0156100611        0.2630667478
 C         -8.0953356486       -1.2844444871       -0.0383666807
 C         -7.1618651269       -2.2020146488       -0.4962953258
 C         -5.8381940612       -1.8207002463       -0.6507351039
 H         -5.0798630179       -2.4966880046       -1.0124475634
 H         -7.4592917989       -3.2107097984       -0.7338962614
 H         -9.1246079412       -1.5837160126        0.0811878568
 H         -8.4465035978        0.7269126011        0.6157582699
 H         -6.0575257474        1.4043301405        0.3212229403
 H         -3.7277398315       -0.9716245571        1.5346589400
 H         -2.0322565511       -1.5438209012        3.0057891476
 H          0.3371546677       -1.2852173096        3.6400764064
 H          1.7853474435        0.2886744489        2.4113410747
 H          1.4207186295        2.7036650983        1.0371889676
 C          0.5541242157        2.4630854461       -0.9023271640
 C         -0.2897995004        3.6987499204       -0.8289585906
 C          1.0798447119        3.7613531318       -1.4335606589
 H          1.1695462686        3.8824803392       -2.5026756469
 H          1.8669828210        4.2418451471       -0.8704806753
 H         -1.1490805346        3.7725989313       -1.4789329243
 H         -0.4344889900        4.1461588715        0.1429202524
 H          0.2797214107        1.7012087519       -1.6247404825
