  62
        -98.94940880
 C         -1.3352158294       -1.5421905477       -0.2851258925
 C         -2.5757606653       -1.1633435164        0.2763031724
 C         -3.1618241606        0.0757905883       -0.2460116270
 C         -2.5121640449        0.7720590837       -1.1960843639
 C         -2.9643903827        2.0702030079       -1.8076721759
 C         -2.6060608615        3.3010530872       -0.9626069794
 C         -3.4663098968        3.5037190652        0.2854312651
 H         -3.2813812018        4.5202133863        0.6388654738
 H         -4.5219295835        3.4367885763        0.0182410621
 C         -3.1553245848        2.5267836475        1.4279492401
 H         -2.1670926587        2.0866494502        1.2710449836
 H         -3.1028929037        3.0776444710        2.3706131555
 C         -4.1871130487        1.4137495881        1.6147729731
 H         -3.8331612819        0.7520733952        2.4097089917
 H         -5.1372527493        1.8477001034        1.9362862912
 C         -4.4413893558        0.5607638406        0.3657447176
 H         -5.0184874541       -0.3177724080        0.6662037653
 H         -5.0206095814        1.1268305165       -0.3636825419
 H         -1.5576111940        3.2310823031       -0.6599236168
 H         -2.7134000025        4.1811747952       -1.6013711034
 H         -2.4610577982        2.1538093374       -2.7734333387
 H         -4.0411536229        2.0450963884       -1.9784362711
 O         -1.3371659896        0.3551857067       -1.7368105431
 C         -0.7063339397       -0.7931279770       -1.2793366436
 O          0.3817550923       -1.0386674231       -1.8330194140
 O         -3.1620400679       -1.8260080363        1.1760305950
 C         -0.6082579413       -2.7540588220        0.2633608910
 C          0.7665498508       -2.3611695026        0.7496946943
 C          1.8622144547       -3.2140464872        0.6850458712
 C          3.1034221420       -2.7993556200        1.1358528886
 C          3.2868261960       -1.5230049577        1.6360550757
 C          2.1962198566       -0.6653827740        1.7104511543
 C          0.9480694831       -1.0981159273        1.2968861071
 H          0.1132504560       -0.4176734000        1.3753373624
 N          2.3238660729        0.6524413890        2.1935939919
 S          1.7866535806        1.8941047852        1.2079018127
 O          2.3659457717        3.0875923926        1.7924967700
 O          0.3495024788        1.8802413917        1.1134048071
 C          2.5251755792        1.6165861162       -0.3916842888
 C          3.8837220434        1.3739363735       -0.4588045227
 C          4.4683878949        1.1687185843       -1.6967177263
 C          3.6900250105        1.2152048312       -2.8435395463
 C          2.3321392545        1.4741714371       -2.7609715528
 C          1.7418766769        1.6761784736       -1.5235960808
 H          0.6852485624        1.8628800030       -1.4218000518
 H          1.7221753560        1.5066488094       -3.6492648589
 H          4.1443678477        1.0498840069       -3.8077864967
 H          5.5261431427        0.9711341292       -1.7644711521
 H          4.4677621362        1.3580461816        0.4470503960
 H          3.2400719421        0.8730564101        2.5577949675
 H          4.2597844780       -1.1939014514        1.9679252254
 H          3.9438322930       -3.4741504320        1.0804687994
 H          1.7438379354       -4.2043812367        0.2763014786
 H         -1.2017597505       -3.0899748671        1.1276083701
 C         -0.5736997805       -3.8674545442       -0.7648930302
 C         -0.6462219993       -5.3028200447       -0.3389747362
 C         -1.8211659626       -4.6604747726       -1.0108640978
 H         -2.0602277522       -4.9461055446       -2.0241883557
 H         -2.6858937448       -4.4170633243       -0.4107192972
 H         -0.0788767542       -6.0345806015       -0.8942118434
 H         -0.7218001385       -5.5093302888        0.7180185956
 H          0.0380666898       -3.6158665984       -1.6240343533
