  62
        -98.93796080
 C         -2.2078574690       -0.9848037105       -0.2897221903
 C         -2.8737276601       -0.4620490087        0.8495311735
 C         -3.3909994636        0.9069190548        0.7388944512
 C         -3.1831150127        1.5942498229       -0.3985761072
 C         -3.6866229496        2.9818200710       -0.6690949345
 C         -5.0708109546        2.9542073245       -1.3322647124
 C         -6.0776221701        2.0507504262       -0.6203649730
 H         -7.0253681501        2.1344098390       -1.1563457803
 H         -5.7483084984        1.0129134466       -0.7079705213
 C         -6.2959800444        2.3879980769        0.8611433811
 H         -5.9369477833        3.3966396549        1.0684866672
 H         -7.3678319205        2.3757790618        1.0691591369
 C         -5.6418555754        1.4080209869        1.8369046558
 H         -6.0355715105        1.6092904264        2.8366367057
 H         -5.9235879623        0.3854154832        1.5739271585
 C         -4.1120555973        1.4770842522        1.9278281208
 H         -3.8008563966        0.8709974142        2.7838416313
 H         -3.7990062071        2.5079660638        2.1074873414
 H         -5.4558187844        3.9748596803       -1.3681018809
 H         -4.9554154920        2.5976493748       -2.3583899398
 H         -2.9805651766        3.4780446139       -1.3373321127
 H         -3.7307717705        3.5331557417        0.2683326158
 O         -2.5179572546        1.0752877502       -1.4594975705
 C         -2.0054753819       -0.2170835290       -1.4367677418
 O         -1.4095547566       -0.5307086173       -2.4849105354
 O         -3.0311155204       -1.1209053018        1.9125171641
 C         -1.6693941643       -2.4006112005       -0.1656810711
 C         -0.2594155892       -2.3652677725        0.3674594446
 C          0.1123498215       -3.1014804921        1.4854188150
 C          1.3983385676       -3.0153674175        1.9918145191
 C          2.3372788413       -2.1921222288        1.3965249226
 C          1.9744550577       -1.4539793495        0.2786998577
 C          0.6895008107       -1.5472243811       -0.2311423884
 H          0.4158081021       -0.9651238411       -1.0999341149
 N          2.9247099232       -0.5874374291       -0.3205382363
 S          3.1712508286        0.8576369179        0.5286046838
 O          3.1353447035        0.5789203996        1.9413399126
 O          2.2513957472        1.8671818541        0.0434679901
 C          4.8323239315        1.2686334741        0.0321174847
 C          5.8862255584        0.6671491243        0.6920354833
 C          7.1803937096        0.9515315805        0.2871068095
 C          7.3977244966        1.8256936120       -0.7675438368
 C          6.3294553792        2.4220036638       -1.4199779518
 C          5.0324743785        2.1408764433       -1.0196632393
 H          4.1726649731        2.5882549251       -1.4920925379
 H          6.5004993959        3.1032471682       -2.2379391082
 H          8.4058300695        2.0456205300       -1.0817626272
 H          8.0135682561        0.4916875622        0.7936328272
 H          5.6692914494        0.0017667909        1.5110647738
 H          2.6352513030       -0.3302818424       -1.2564697816
 H          3.3338448131       -2.0982806693        1.7944398338
 H          1.6691322726       -3.5898112645        2.8645453528
 H         -0.6215837743       -3.7269202937        1.9723864958
 H         -2.2991525412       -2.8732063501        0.6047522184
 C         -1.8129396221       -3.2215283196       -1.4391565980
 C         -0.6522266970       -3.6750116035       -2.2680469630
 C         -1.4110991327       -4.6670363141       -1.4422843083
 H         -2.0484096298       -5.3808112880       -1.9414525771
 H         -0.9283441739       -5.0471650332       -0.5545942791
 H         -0.7782511051       -3.6808744094       -3.3399037239
 H          0.3416573711       -3.4017401409       -1.9502972682
 H         -2.7163749077       -2.9662690035       -1.9835142103
