  62
        -98.94083847
 C         -2.6483648401       -1.1680007001       -0.3933386398
 C         -2.1469853101       -0.0014934399       -1.0205917396
 C         -3.0380640301        1.1684202801       -1.0022858991
 C         -4.2461540400        1.0724734000       -0.4185274489
 C         -5.2245795399        2.2013760000       -0.2766637284
 C         -5.0169326897        2.9504853096        1.0471140518
 C         -3.5628491396        3.3389114394        1.3167839216
 H         -3.5426352594        3.8887092692        2.2603969018
 H         -2.9695300496        2.4328045694        1.4634862413
 C         -2.9180959097        4.1917295397        0.2152159918
 H         -2.3681418596        5.0103950396        0.6842171219
 H         -3.6932771598        4.6369644899       -0.4096946580
 C         -1.9234700699        3.4390493599       -0.6708346986
 H         -1.3734949200        4.1752790401       -1.2634162685
 H         -1.1950787798        2.9165675197       -0.0439115689
 C         -2.5354267501        2.4282583203       -1.6492443188
 H         -3.3281697302        2.9087509505       -2.2261645085
 H         -1.7464976903        2.1163189204       -2.3397829690
 H         -5.3561906595        2.3101256694        1.8646067716
 H         -5.6384128996        3.8476783696        1.0376727821
 H         -5.1081650000        2.8848510702       -1.1153167782
 H         -6.2336166799        1.7862460500       -0.2939692084
 O         -4.6979959399       -0.0682860502        0.1619836308
 C         -3.9077617100       -1.2031792402        0.2098072504
 O         -4.4315248899       -2.1682700504        0.8015029902
 H          0.7878756998       -1.7803589601       -0.9325873806
 C          0.6095494900       -1.7838006104        0.1308251094
 C         -0.6418785400       -2.1228957605        0.6180907396
 C         -0.8538705497       -2.0909808109        1.9939741096
 C          0.1628198704       -1.7269471712        2.8564958395
 C          1.4098819004       -1.3792038511        2.3658224594
 C          1.6274920601       -1.4010567007        0.9954798994
 N          2.8905225601       -1.0442524106        0.4830152193
 S          3.5793984202        0.3678613892        1.1080053996
 O          4.2443557904        0.0379932388        2.3448012794
 O          2.5899557303        1.4191374192        1.1890170200
 C          4.7867408500        0.7346816295       -0.1497679105
 C          6.0706458700        0.2414105294       -0.0188838009
 C          6.9918748499        0.4993995797       -1.0217271810
 C          6.6150738397        1.2393997300       -2.1324591907
 C          5.3221050497        1.7278740401       -2.2495783103
 C          4.3955934499        1.4731666098       -1.2508328302
 H          3.3816734999        1.8392475199       -1.2981613400
 H          5.0315365296        2.3039747604       -3.1134300001
 H          7.3331712596        1.4390819702       -2.9120595707
 H          7.9982286299        0.1229339796       -0.9343185212
 H          6.3175874702       -0.3232937709        0.8648603389
 H          2.8755771999       -1.0033201303       -0.5278770407
 H          2.2070177005       -1.0716897813        3.0236375894
 H         -0.0167188594       -1.7052699415        3.9212404696
 H         -1.8353679297       -2.3382769809        2.3757650697
 C         -1.8052329701       -2.4302321502       -0.2930587303
 H         -2.4385137401       -3.1781779103        0.2020022595
 C         -1.4047011404       -2.9539982898       -1.6558794006
 C         -0.8646428004       -4.3465666698       -1.7761489011
 C         -2.2313938205       -4.0245757696       -2.2992672507
 H         -2.3798819507       -3.9868674992       -3.3680530207
 H         -3.0887984904       -4.3895887197       -1.7528659007
 H         -0.0738176706       -4.5348494996       -2.4860218312
 H         -0.7924777703       -4.9308917500       -0.8713075712
 H         -0.9950530704       -2.1909466496       -2.3056819104
 O         -1.0197046202        0.0704649802       -1.5773736797
