  62
        -98.93410190
 C          2.2977573687        0.5649402009        0.2915538454
 C          3.4902438914        0.5345836623        1.0556666474
 C          4.5133874726       -0.4597849112        0.6789114366
 C          4.2433669921       -1.3116734693       -0.3271730896
 C          5.1299986242       -2.3797493251       -0.9104139139
 C          6.2336773744       -1.8067076179       -1.8138379374
 C          6.9483621056       -0.5788794879       -1.2556286572
 H          6.2154201404        0.2077697139       -1.0671987243
 H          7.6272119308       -0.2097608604       -2.0290019137
 C          7.7691035205       -0.8217920032        0.0087849938
 H          8.2954296141        0.1086869762        0.2370206792
 H          8.5217946164       -1.5868462108       -0.1942355728
 C          6.9775621211       -1.2353026621        1.2515173749
 H          7.6438760839       -1.1266440126        2.1122763069
 H          6.6981839738       -2.2846064537        1.2090164110
 C          5.7508487511       -0.3757042686        1.5398780376
 H          6.0459818177        0.6799954835        1.5457326488
 H          5.4114754040       -0.5831443885        2.5619684259
 H          5.7775545143       -1.5220975438       -2.7652696745
 H          6.9612595326       -2.5956352132       -2.0117189074
 H          4.4870827298       -3.0247763814       -1.5134571462
 H          5.5557153266       -2.9862266774       -0.1165247431
 O          3.0618584994       -1.2785661367       -1.0049863514
 C          2.0643682613       -0.3569822791       -0.7295354442
 O          1.0578632210       -0.4763903917       -1.4517217267
 O          3.7034087013        1.3150618560        2.0225706209
 C          1.2509623223        1.5970479077        0.6717615886
 C         -0.0984747033        0.9436375604        0.8227097034
 C         -0.3413435075        0.1453318562        1.9368293088
 C         -1.5623587557       -0.4788374358        2.1064478284
 C         -2.5661568536       -0.3249513075        1.1662283418
 C         -2.3334255533        0.4656939681        0.0495962835
 C         -1.1088594638        1.1012670487       -0.1121424271
 H         -0.9336968979        1.6981003535       -0.9939653911
 N         -3.3391259063        0.6055700356       -0.9202285124
 S         -4.8944943861        0.9881086763       -0.4324911501
 O         -5.5117257631        1.6080729685       -1.5849164592
 O         -4.8917918781        1.7636822817        0.7868140952
 C         -5.6607867222       -0.5935550193       -0.1472239687
 C         -5.6227696073       -1.5282078016       -1.1632591211
 C         -6.2255459889       -2.7595849820       -0.9622095223
 C         -6.8549453473       -3.0330641494        0.2432081569
 C         -6.8868623414       -2.0829968624        1.2523731832
 C         -6.2850256362       -0.8494171308        1.0578673253
 H         -6.2797782508       -0.0825384795        1.8160445334
 H         -7.3764326165       -2.2977198036        2.1887281301
 H         -7.3228522206       -3.9926872763        0.3967059748
 H         -6.2017629398       -3.5011831524       -1.7444736878
 H         -5.1244175288       -1.2771874186       -2.0848351858
 H         -3.0593668690        1.1414727349       -1.7283257998
 H         -3.5197216721       -0.8121618446        1.2891925907
 H         -1.7353037685       -1.0940737017        2.9764731512
 H          0.4450745381        0.0177501575        2.6683374661
 H          1.5685086531        1.9488936377        1.6672749709
 C          1.2209312444        2.8246201253       -0.2267797689
 C          2.4892788750        3.3829958228       -0.7972050473
 C          1.4690259006        2.7650253883       -1.7031821906
 H          0.8928398148        3.4177062326       -2.3435454903
 H          1.6812213254        1.8026138342       -2.1415505587
 H          2.6181095452        4.4546454870       -0.8181057706
 H          3.4013273355        2.8359797379       -0.6077931321
 H          0.4850083708        3.5488089963        0.1115111820
