  62
        -98.94290847
 C          2.0468034395        0.9048676197        0.4450951907
 C          2.7368685395       -0.1455146106        1.1062511802
 C          4.1720921795       -0.2603215603        0.8299177105
 C          4.7625333497        0.6227847202        0.0047863812
 C          6.2234387398        0.6646599706       -0.3527803084
 C          6.6187278301       -0.2900385187       -1.4875265589
 C          6.6365182801       -1.7726440489       -1.1135568398
 H          7.1391077504       -2.3021469484       -1.9253829600
 H          7.2364777199       -1.9124186394       -0.2137855998
 C          5.2460935301       -2.3902976692       -0.9085419006
 H          4.4886043802       -1.7411517890       -1.3540363503
 H          5.1920325904       -3.3485223289       -1.4302027112
 C          4.8760826498       -2.6491886901        0.5520585992
 H          3.8588485698       -3.0485721902        0.5825109487
 H          5.5458965298       -3.4028208603        0.9723813589
 C          4.9219775995       -1.4027549007        1.4453721200
 H          5.9557072494       -1.1178348807        1.6409308304
 H          4.4388647193       -1.6437798513        2.3956173297
 H          5.9385151303       -0.1347835382       -2.3280159090
 H          7.6220275502       -0.0080687984       -1.8150176585
 H          6.8224310996        0.4473089101        0.5321226216
 H          6.4348850298        1.6868736608       -0.6737589177
 O          4.0737009197        1.6246355605       -0.5978726584
 C          2.7063548397        1.7844353603       -0.4144130786
 O          2.2313152598        2.7349344507       -1.0656056681
 O          2.1775431393       -0.9445024312        1.9053717096
 C          0.5633606295        1.0325161294        0.7439484904
 C         -0.2990866502        0.4071320600       -0.3266507802
 C         -0.2323742399        0.8204703208       -1.6537791799
 C         -1.0449403496        0.2391582814       -2.6095487705
 C         -1.9549391996       -0.7437051289       -2.2597641713
 C         -2.0351551099       -1.1582993797       -0.9364330816
 C         -1.2008138502       -0.5896752103        0.0172161889
 H         -1.2672331005       -0.9332095909        1.0385070787
 N         -2.9579449100       -2.1468797901       -0.5423902925
 S         -4.0680579803       -1.7668984809        0.6523298875
 O         -3.3850495906       -1.4991112116        1.8909957478
 O         -5.0057435702       -2.8667657510        0.6553394766
 C         -4.8710395903       -0.2892413606        0.0554704182
 C         -4.2451265404        0.9303827694        0.2228492391
 C         -4.8397138004        2.0643498396       -0.3077220703
 C         -6.0427264402        1.9617199600       -0.9892031607
 C         -6.6601942500        0.7299659600       -1.1456184216
 C         -6.0674676901       -0.4088068203       -0.6245858422
 H         -6.5126732600       -1.3860636502       -0.7195528629
 H         -7.5973467799        0.6536659303       -1.6731024219
 H         -6.5011026101        2.8477447202       -1.3993301603
 H         -4.3569945005        3.0209093196       -0.1878659496
 H         -3.3119034105        0.9782478191        0.7596379294
 H         -3.4342923797       -2.5884998796       -1.3166024129
 H         -2.5941844594       -1.1910472385       -3.0059971118
 H         -0.9767771194        0.5628132820       -3.6370480903
 H          0.4673051101        1.5950797211       -1.9271884993
 H          0.4110793693        0.4547260388        1.6663943600
 C          0.1191832093        2.4601824592        1.0002024712
 C         -1.0633349310        2.7036504486        1.8873137510
 C          0.3153230389        3.0528214084        2.3614714716
 H          0.5913703788        4.0938865784        2.4344807823
 H          0.7678464088        2.4276633080        3.1178072613
 H         -1.7385829910        3.5081679587        1.6396637713
 H         -1.5437656110        1.8440851083        2.3326966604
 H          0.2586784394        3.1136566198        0.1489719316
