  62
        -98.94180579
 C          1.9290726435       -1.0880534516        0.0191988810
 C          2.1568797694        0.2730021742        0.3409712794
 C          3.3998304468        0.8541323932       -0.1888018398
 C          4.2074931226        0.1227915243       -0.9761145961
 C          5.4850077035        0.5907149648       -1.6183858330
 C          6.7129547171        0.5046106587       -0.7016280939
 C          6.7621558171        1.5434934178        0.4195009541
 H          7.7676170088        1.5091399712        0.8437073510
 H          6.6214802713        2.5389670130       -0.0029114538
 C          5.7436840046        1.3101800667        1.5440846375
 H          5.3735986027        0.2835997078        1.4921312455
 H          6.2377202743        1.4235554635        2.5116996240
 C          4.5520354138        2.2676296771        1.5289501744
 H          4.8990617426        3.2869785667        1.7121432485
 H          3.8784914713        1.9897419516        2.3436009587
 C          3.7470658083        2.2533660620        0.2228600070
 H          2.8120093029        2.7935704426        0.3905269846
 H          4.3036583735        2.7561792259       -0.5677667468
 H          7.5974589487        0.6364584389       -1.3290917642
 H          6.7577875449       -0.4986574337       -0.2715024959
 H          5.3644163854        1.6151431266       -1.9721372978
 H          5.6534201196       -0.0571282519       -2.4814387464
 O          3.9293209714       -1.1666257960       -1.3046798843
 C          2.8100883007       -1.8041881631       -0.7976358819
 O          2.7059945864       -2.9986056192       -1.1420093261
 O          1.3776552366        0.9885162869        1.0221813797
 C          0.7309665980       -1.8776647569        0.5236602925
 C         -0.4776666364       -1.6664832213       -0.3506749300
 C         -1.1979572425       -2.7455465872       -0.8484854217
 C         -2.3177166999       -2.5423896980       -1.6369623267
 C         -2.7432787335       -1.2618001225       -1.9410153611
 C         -2.0305394786       -0.1767389456       -1.4466421154
 C         -0.9077827871       -0.3826825594       -0.6583655209
 H         -0.3606171073        0.4646392367       -0.2721101532
 N         -2.4587975695        1.1344023820       -1.7388234399
 S         -4.0255247584        1.5303299887       -1.2932424341
 O         -4.9488899548        0.8764596450       -2.1860832308
 O         -4.0686938479        2.9744787269       -1.2752380791
 C         -4.2021967351        0.8774208204        0.3559924151
 C         -3.7138525152        1.6230053322        1.4106709659
 C         -3.7774402189        1.0961932684        2.6903925075
 C         -4.3121503264       -0.1674037820        2.8902249077
 C         -4.7969400866       -0.9036821569        1.8205631211
 C         -4.7439036700       -0.3791189966        0.5390194098
 H         -5.1169663510       -0.9163994734       -0.3169751818
 H         -5.2119063323       -1.8858081982        1.9792939161
 H         -4.3489642263       -0.5803699071        3.8856056428
 H         -3.4012259288        1.6678127844        3.5234065024
 H         -3.3042436201        2.6010442344        1.2142139107
 H         -1.8197893657        1.8382303980       -1.3963375699
 H         -3.6143072416       -1.0840840623       -2.5509332824
 H         -2.8640322431       -3.3901695439       -2.0213346743
 H         -0.8665419640       -3.7490351690       -0.6249490380
 H          1.0267733221       -2.9339773434        0.4271443103
 C          0.4412759242       -1.6264635318        1.9988470106
 C         -0.7406499548       -0.8586512745        2.5004354992
 C         -0.6900001332       -2.3446530425        2.6739389177
 H         -0.5293944731       -2.7497574098        3.6612496924
 H         -1.3394960093       -2.9393513706        2.0496641162
 H         -0.5932265547       -0.2261378228        3.3621031157
 H         -1.4344259079       -0.4535229126        1.7811800147
 H          1.3580152576       -1.5192138044        2.5705025142
