  62
        -98.94756640
 C          1.7431117600        1.3637549406       -0.1974508998
 C          2.8153658202        0.7192353907        0.4601138800
 C          3.3002083002       -0.5197178592       -0.1601889300
 C          2.7077764701       -0.9700203293       -1.2814942199
 C          3.0918562901       -2.2253353593       -2.0096730800
 C          2.2633547303       -3.4265454393       -1.5360579898
 C          2.2144709606       -3.5833349793       -0.0163441698
 H          1.6426068806       -2.7516054494        0.4031439203
 H          1.6427416008       -4.4899604694        0.1970493003
 C          3.5885189307       -3.6728734892        0.6623693499
 H          4.3470356407       -3.9437565691       -0.0732978002
 H          3.5561325910       -4.4728524092        1.4052660800
 C          4.0245748807       -2.4033505691        1.3964725299
 H          4.8779666809       -2.6545946590        2.0324107297
 H          3.2154070508       -2.0679220392        2.0510960500
 C          4.4461485904       -1.2263046091        0.5075817998
 H          4.9263295005       -0.4804579990        1.1481405897
 H          5.1754148804       -1.5658301490       -0.2307872104
 H          2.6768768704       -4.3311951193       -1.9868581299
 H          1.2369638403       -3.3031491895       -1.8896694397
 H          4.1518124902       -2.4182560191       -1.8541708402
 H          2.9119142899       -2.0706449893       -3.0751553700
 O          1.6655882899       -0.3363849094       -1.8728101098
 C          1.1288966899        0.8159815105       -1.3243125697
 O          0.1365241797        1.2603859804       -1.9326728295
 O          3.3430490903        1.1613767308        1.5189300499
 C          1.1626416800        2.6364829706        0.3985619003
 C         -0.2867250799        2.3843111004        0.7279258805
 C         -1.3367517701        3.1924507903        0.3130908707
 C         -2.6488621900        2.8200639901        0.5538798009
 C         -2.9408125298        1.6259265301        1.1881577210
 C         -1.8954109696        0.8286274002        1.6329001908
 C         -0.5861522897        1.2242132504        1.4321574106
 H          0.2212180805        0.5853382605        1.7693819205
 N         -2.1915104794       -0.4534066598        2.1882698209
 S         -1.9645884594       -1.6357101498        0.9967186909
 O         -2.2955371592       -2.8968856698        1.6273164509
 O         -0.6380690695       -1.5632636297        0.4230355506
 C         -3.2053090197       -1.1930937400       -0.1936733289
 C         -2.8739519000       -0.3701909799       -1.2517270790
 C         -3.8740831302        0.0101722499       -2.1339159588
 C         -5.1740564901       -0.4317333402       -1.9426426686
 C         -5.4880865498       -1.2579936802       -0.8735297585
 C         -4.4956697896       -1.6414495701        0.0133789813
 H         -4.6869771794       -2.2826070001        0.8580821514
 H         -6.5000502597       -1.5999835703       -0.7278799183
 H         -5.9465164802       -0.1291541203       -2.6320243785
 H         -3.6246693404        0.6554029700       -2.9609434989
 H         -1.8548596200       -0.0340549498       -1.3743008592
 H         -1.5910334792       -0.6856128297        2.9695119008
 H         -3.9572856997        1.3002792600        1.3373067312
 H         -3.4537472601        3.4536000400        0.2150784511
 H         -1.1275083603        4.1045381303       -0.2214880793
 H          1.7166939601        2.8047396506        1.3339026502
 C          1.3835939997        3.8147419506       -0.5250007498
 C          1.4608332496        5.2040918406        0.0323342802
 C          2.6975864996        4.5334133207       -0.4830742600
 H          3.1254276794        4.8787181108       -1.4121548301
 H          3.4299553598        4.1855310608        0.2308132899
 H          1.0421160194        6.0150814105       -0.5438454997
 H          1.3560316498        5.3201733206        1.1003932802
 H          0.9212140495        3.6739107905       -1.4954552797
