  62
        -98.94019025
 C          2.4520395427        0.9695953354       -0.0270713572
 C          2.5754503315       -0.4138559380        0.2471567791
 C          3.9214445436       -0.8695097375        0.6179225762
 C          4.9298559817        0.0171972153        0.7018205530
 C          6.3506619613       -0.2914408211        1.0896228083
 C          7.2182239743       -0.7999038862       -0.0699777476
 C          6.9163680139       -2.2260924155       -0.5317814802
 H          7.7326374700       -2.5289729970       -1.1905241211
 H          6.9269457648       -2.8954948072        0.3288492019
 C          5.5896659214       -2.3792716255       -1.2887451075
 H          5.2435204146       -1.3977949097       -1.6211325301
 H          5.7491613946       -2.9821504496       -2.1856255524
 C          4.4751166837       -3.0492922580       -0.4850096494
 H          4.7542569642       -4.0810743191       -0.2600717115
 H          3.5729075003       -3.0712640170       -1.1018064166
 C          4.1310517427       -2.3383847800        0.8303977174
 H          3.1945770230       -2.7538917769        1.2106561995
 H          4.9156626120       -2.5092964127        1.5670827750
 H          7.1112983782       -0.1135502503       -0.9130795448
 H          8.2586375552       -0.7607511460        0.2607185346
 H          6.7813770787        0.6419452852        1.4581517225
 H          6.3586198187       -1.0218798899        1.8990183892
 O          4.7616227013        1.3443719299        0.4558062657
 C          3.5297675100        1.8489936203        0.0725037213
 O          3.5205479763        3.0793515253       -0.1370369765
 O          1.6165086322       -1.2268957406        0.1899702609
 C          1.1087053049        1.5402287286       -0.4435775807
 C          0.0690566004        1.2378072173        0.6081144923
 C          0.3346333236        1.5839571413        1.9310927273
 C         -0.5891097920        1.3310826636        2.9259535242
 C         -1.8018752600        0.7370043828        2.6229217881
 C         -2.0759466118        0.3859186969        1.3067770207
 C         -1.1449503498        0.6419290026        0.3089421762
 H         -1.3861669663        0.3613192489       -0.7021807538
 N         -3.2833867428       -0.2494879632        0.9762076116
 S         -3.9855941114        0.0434966486       -0.5286852223
 O         -3.3391642678       -0.7754002798       -1.5226457454
 O         -4.0182196614        1.4646352420       -0.7938844718
 C         -5.6337930749       -0.5688645030       -0.2295940761
 C         -6.6506297570        0.3199628444        0.0635345222
 C         -7.9196350736       -0.1747819143        0.3211429728
 C         -8.1481921584       -1.5420287210        0.2842439284
 C         -7.1175487412       -2.4219347464       -0.0121052169
 C         -5.8469368108       -1.9340055102       -0.2719966600
 H         -5.0175056700       -2.5775362406       -0.5154098553
 H         -7.2995961045       -3.4841130691       -0.0425170698
 H         -9.1364152669       -1.9246303780        0.4849225105
 H         -8.7236917555        0.5064085949        0.5486088984
 H         -6.4276586754        1.3747748216        0.0731580341
 H         -3.9649104251       -0.2134678182        1.7216615720
 H         -2.5242480516        0.5381985342        3.4000046135
 H         -0.3669159619        1.6036825986        3.9468830601
 H          1.2814481546        2.0521808966        2.1663111576
 H          1.2394879560        2.6318981054       -0.4877609495
 C          0.7340719402        1.0408088709       -1.8231217114
 C         -0.1882328145        1.8433757196       -2.6890156324
 C          1.2681587524        1.7496952462       -3.0296258155
 H          1.5612642657        1.1615192879       -3.8862815067
 H          1.8901171541        2.6166944076       -2.8595651448
 H         -0.9022518170        1.3172903933       -3.3054662295
 H         -0.5614633911        2.7754577528       -2.2915091553
 H          0.6605606392       -0.0403488715       -1.8700491742
