  62
        -98.94478875
 C         -1.8573206311       -0.7471366342        0.4123907348
 C         -2.4663806262       -0.1567400276       -0.7215599297
 C         -3.5239735617        0.8220483812       -0.4364018603
 C         -3.8203295681        1.1379222213        0.8372877894
 C         -4.8515286683        2.1377538628        1.2858740677
 C         -6.2790982388        1.5778505546        1.3507203439
 C         -6.9441711284        1.3331828442       -0.0043176443
 H         -8.0038508517        1.1531494053        0.1873128759
 H         -6.8723795346        2.2363233249       -0.6112239216
 C         -6.3736685259        0.1398295337       -0.7833478796
 H         -7.1945704781       -0.4638439393       -1.1767674039
 H         -5.8033245590       -0.4988064054       -0.1049832911
 C         -5.4848410894        0.5217417794       -1.9670885895
 H         -6.0790230184        1.0492212339       -2.7166164075
 H         -5.1069639605       -0.3970034531       -2.4226504329
 C         -4.2799304093        1.3963175844       -1.5961975341
 H         -3.6002876461        1.4266023581       -2.4515740105
 H         -4.6065397763        2.4121151692       -1.3736981523
 H         -6.2637747487        0.6471908358        1.9225931935
 H         -6.8858861192        2.2979954313        1.9045284574
 H         -4.5605507665        2.4551226561        2.2897253892
 H         -4.8296936144        3.0069149194        0.6276243825
 O         -3.1748645307        0.5836861159        1.8986887167
 C         -2.1928776885       -0.3770977361        1.7139890676
 O         -1.6898764831       -0.8078252543        2.7726593923
 H          0.4157816858        0.5186495257        0.7735540569
 C          0.8914819354        0.0340526991       -0.0707177777
 C          0.4014836989       -1.1904877996       -0.5092547011
 C          1.0314988623       -1.8090650950       -1.5805036753
 C          2.1004102659       -1.1972502000       -2.2138295750
 C          2.5699120339        0.0315665842       -1.7896477766
 C          1.9599453469        0.6489489461       -0.7041583112
 N          2.4397371272        1.8885300509       -0.2501794817
 S          4.0947092765        2.1001914106       -0.1326550921
 O          4.2763813187        3.0887705650        0.9073157777
 O          4.6333862445        2.4435875485       -1.4252338554
 C          4.7403095579        0.5193251123        0.3857511369
 C          4.2691776096       -0.0231522938        1.5650168196
 C          4.7410514805       -1.2614555010        1.9685796851
 C          5.6723021348       -1.9325693473        1.1906000357
 C          6.1399147079       -1.3719863207        0.0124288044
 C          5.6693709025       -0.1346665945       -0.3974461722
 H          6.0023526669        0.3363752732       -1.3078949182
 H          6.8653949107       -1.8951580582       -0.5892361660
 H          6.0347075276       -2.8978769912        1.5068499555
 H          4.3771149291       -1.6981448026        2.8848516618
 H          3.5475266543        0.5235548250        2.1511650856
 H          1.9620691905        2.2430883528        0.5646971773
 H          3.3879055569        0.5287004105       -2.2852345308
 H          2.5722268107       -1.6833838113       -3.0538174088
 H          0.6795344439       -2.7658945441       -1.9285068255
 C         -0.7696152938       -1.7907504134        0.2314170535
 H         -0.4297798474       -2.0523760927        1.2443070109
 C         -1.3356097233       -3.0308900101       -0.4278300410
 C         -0.7323811397       -4.3742927554       -0.1515261398
 C         -2.0737702220       -4.0239167359        0.4170060360
 H         -2.9515670688       -4.4997360869        0.0060636296
 H         -2.1454958777       -3.8181860403        1.4754787462
 H          0.1078346355       -4.4156912906        0.5247844408
 H         -0.6908208838       -5.0960404672       -0.9531930424
 H         -1.7222822546       -2.8345914870       -1.4210627890
 O         -2.1449607579       -0.4264800752       -1.9071415861
