  62
        -98.94434669
 C         -1.9504126499       -1.2587433808        0.4394834695
 C         -2.7732318899       -0.9533385000       -0.6720104503
 C         -4.0089059199       -0.2150180802       -0.3688538298
 C         -4.2682097098        0.1503264690        0.8995257404
 C         -5.4582509498        0.9537612288        1.3358926909
 C         -5.1520404298        2.4579324488        1.3158562819
 C         -4.5115239198        2.9413707896        0.0145613322
 H         -4.3689867397        4.0206372495        0.1034794928
 H         -3.5189400498        2.4949397496       -0.0835735181
 C         -5.3302389398        2.6358309104       -1.2475047480
 H         -6.3624123198        2.4130439803       -0.9745656281
 H         -5.3468593398        3.5272302208       -1.8781033274
 C         -4.7744354498        1.4955725409       -2.1024654087
 H         -3.7137497998        1.6695652710       -2.3013151386
 H         -5.2937708399        1.5082144615       -3.0644097687
 C         -4.9302340299        0.0864758805       -1.5172204896
 H         -5.9705026799       -0.0794389896       -1.2299246697
 H         -4.6714060599       -0.6282248290       -2.3038644101
 H         -6.0822863397        3.0020057787        1.4890721922
 H         -4.4687190897        2.6839012582        2.1378989420
 H         -6.2980014098        0.7349052092        0.6792969708
 H         -5.7181361198        0.6589279681        2.3539969508
 O         -3.4358670998       -0.1302518717        1.9350131602
 C         -2.2581752599       -0.8283382216        1.7305549498
 O         -1.5757367498       -0.9974844622        2.7629012397
 H          0.3813479802        0.2299801787        1.1427839704
 C          0.7606769201        0.0059396093        0.1531649602
 C          0.3319367301       -1.1536524703       -0.4834672005
 C          0.8273671301       -1.4392129595       -1.7476591707
 C          1.7130741701       -0.5704529291       -2.3641078701
 C          2.1325519201        0.5846647305       -1.7315086594
 C          1.6529961602        0.8714117797       -0.4585437592
 N          2.1058033302        2.0256344293        0.2066017415
 S          3.7644424502        2.2698402792        0.2318951316
 O          4.0275833203        2.9918129684        1.4571660721
 O          4.1722501902        2.9288115799       -0.9838825380
 C          4.4744934902        0.6335226191        0.2965958006
 C          5.2903946001        0.1962244397       -0.7267141297
 C          5.7955613501       -1.0931872603       -0.6768583505
 C          5.4728537801       -1.9204767410        0.3872782590
 C          4.6556148201       -1.4647184616        1.4105998393
 C          4.1503152302       -0.1756708815        1.3676681601
 H          3.5145205402        0.2076418580        2.1500890003
 H          4.4052132201       -2.1087415021        2.2384198589
 H          5.8597694901       -2.9266310210        0.4217545583
 H          6.4335017801       -1.4493760498       -1.4694178908
 H          5.5107424401        0.8709896202       -1.5376676793
 H          1.7099078802        2.1436564587        1.1277890616
 H          2.8184144701        1.2722207807       -2.1995943690
 H          2.0823607601       -0.7978283985       -3.3522319503
 H          0.5106171600       -2.3337990592       -2.2567382912
 C         -0.6513902399       -2.0276833807        0.2569589290
 H         -0.2557168399       -2.1862958413        1.2701623089
 C         -0.8879576100       -3.3761211603       -0.3867076218
 C          0.1380465800       -4.4567511104       -0.2303581025
 C         -1.1724139300       -4.5575242208        0.4893220874
 H         -1.8937230800       -5.2866292806        0.1519761670
 H         -1.1856208800       -4.3951731815        1.5575185475
 H          1.0185448000       -4.2270215308        0.3502036076
 H          0.3182470400       -5.1215533699       -1.0611486630
 H         -1.4264578300       -3.3112255197       -1.3238835818
 O         -2.5020713999       -1.2802159393       -1.8557780005
