  62
        -98.94503975
 C         -2.5554921603       -0.1185783990        0.4242594999
 C         -2.3695154603        0.5474775603       -0.8108829305
 C         -2.1522479798        1.9981501903       -0.7299371913
 C         -2.1492973994        2.5990017009        0.4735187684
 C         -1.9414829889        4.0685559310        0.6992271275
 C         -0.4671213088        4.4108263006        0.9484611071
 C          0.4979932508        3.8233687298       -0.0815448128
 H          1.4942464210        4.1991629196        0.1641260268
 H          0.5367904805        2.7376016199        0.0343507978
 C          0.1698024907        4.1703435791       -1.5401694229
 H          1.0993454306        4.4315679886       -2.0501933132
 H         -0.4788092391        5.0467555793       -1.5776712533
 C         -0.4674654098        3.0291901689       -2.3357779222
 H          0.1050185699        2.1117644688       -2.1740401718
 H         -0.4044120100        3.2769859883       -3.3989518123
 C         -1.9400368399        2.7370329395       -2.0206442518
 H         -2.5130516096        3.6667284497       -2.0352053221
 H         -2.3269482902        2.0806524292       -2.8056552613
 H         -0.3683622085        5.4984917006        0.9630508165
 H         -0.1839465587        4.0297667711        1.9326775672
 H         -2.3089133189        4.6145079206       -0.1678602027
 H         -2.5233270087        4.3625355216        1.5750511175
 O         -2.3297503794        1.9248712116        1.6396363588
 C         -2.5100547498        0.5513313916        1.6446991295
 O         -2.6302561198        0.0513994723        2.7841521098
 H         -0.1877047605       -0.9038042297        0.5207156598
 C         -0.3235799709       -1.7874555599       -0.0858964297
 C         -1.5991411110       -2.3121245396       -0.2469701491
 C         -1.7508416415       -3.4611139200       -1.0125475485
 C         -0.6503440818       -4.0528296407       -1.6090608584
 C          0.6139716384       -3.5137317310       -1.4636528589
 C          0.7756634689       -2.3603176506       -0.7018633196
 N          2.0374479491       -1.7542609609       -0.5872395901
 S          2.3401770096       -0.6095154504        0.6052277392
 O          2.1000728097       -1.1699233496        1.9185290596
 O          1.6328821499        0.6029889297        0.2822322187
 C          4.0895976597       -0.3718668910        0.3587652188
 C          4.9860119596       -1.1021924509        1.1159997190
 C          6.3440574496       -0.9320777314        0.8971749086
 C          6.7804981097       -0.0404914921       -0.0712305019
 C          5.8691544898        0.6874674678       -0.8217230221
 C          4.5099446297        0.5221433383       -0.6074619718
 H          3.7645342198        1.0716060983       -1.1587071020
 H          6.2115557698        1.3825791173       -1.5711942826
 H          7.8376735697        0.0905685575       -0.2396413722
 H          7.0547032195       -1.4934351213        1.4820244888
 H          4.6004053995       -1.7744049104        1.8656497494
 H          2.8111621788       -2.3877675712       -0.7278321499
 H          1.4676358281       -3.9693820215       -1.9410735088
 H         -0.7810624222       -4.9464316309       -2.2004219179
 H         -2.7303645117       -3.8911957798       -1.1442466981
 C         -2.7514856507       -1.6227576089        0.4448394207
 H         -2.7371666806       -1.9179801984        1.5055929909
 C         -4.1009551909       -1.9826582488       -0.1446345088
 C         -4.8700611212       -3.1585558183        0.3759652719
 C         -5.3296761407       -1.7664036980        0.6849801513
 H         -6.2204182407       -1.3944811080        0.2015436713
 H         -5.1859776604       -1.3878639675        1.6869826911
 H         -4.4270455912       -3.7321982380        1.1762047022
 H         -5.4512251415       -3.7438076585       -0.3206492576
 H         -4.1631360311       -1.7533795694       -1.2022622989
 O         -2.3959759207       -0.0380703103       -1.9254554602
