  62
        -98.94385021
 C         -1.7469832814       -1.2783732043        0.9565703134
 C         -2.8932119087       -0.7721693082        0.2971704132
 C         -3.2056066714        0.6418504753        0.5664511664
 C         -2.4374362363        1.3663508391        1.3970676373
 C         -2.6262878331        2.8166064378        1.7485489649
 C         -2.0230524832        3.7761901481        0.7133963316
 C         -2.8160087659        3.9063740760       -0.5878719153
 H         -3.8655166798        4.0988935414       -0.3598939174
 H         -2.4281115180        4.7820346929       -1.1124159305
 C         -2.6993279491        2.6897720964       -1.5166735439
 H         -2.5243490312        3.0306901220       -2.5405514998
 H         -1.8245589441        2.1005937353       -1.2304012200
 C         -3.9341851265        1.7884098666       -1.5450240098
 H         -4.7754843914        2.3354684715       -1.9780259935
 H         -3.7182314109        0.9348398651       -2.1929519372
 C         -4.3601234897        1.2470218716       -0.1747904207
 H         -4.8161216149        2.0405836025        0.4169242218
 H         -5.1000746867        0.4586141928       -0.3357212802
 H         -1.0077989420        3.4441172510        0.4803021539
 H         -1.9577952136        4.7632754148        1.1778754857
 H         -3.6874801363        3.0334628833        1.8767907693
 H         -2.1196016536        2.9744394373        2.7031441469
 O         -1.3730846538        0.8319923677        2.0494663630
 C         -0.9866945270       -0.4711997171        1.8100417476
 O          0.0407963075       -0.8193197107        2.4297189190
 H         -0.3248564402       -0.8613291147       -1.0769368831
 C          0.4720388317       -1.5240156099       -0.7723952223
 C          0.2283784706       -2.5208529716        0.1606839720
 C          1.2795606784       -3.3483084305        0.5376622786
 C          2.5416667408       -3.1768210100       -0.0034290180
 C          2.7899483022       -2.1496385711       -0.8964830449
 C          1.7476654115       -1.3101662000       -1.2689467869
 N          1.9520751891       -0.1926178398       -2.1091005718
 S          1.8007841931        1.2894134188       -1.3285576208
 O          0.4930805528        1.4031431798       -0.7412521822
 O          2.1482371744        2.2802938682       -2.3245235835
 C          3.0688637519        1.2382600154       -0.0749841072
 C          2.8192169761        0.5984469094        1.1225164803
 C          3.8485931090        0.4944116102        2.0466443464
 C          5.0972317993        1.0236920197        1.7606434073
 C          5.3300830298        1.6643126934        0.5525130540
 C          4.3092013438        1.7681695992       -0.3775694692
 H          4.4405870274        2.2599077581       -1.3281422144
 H          6.3009340282        2.0783496926        0.3326751144
 H          5.8919823919        0.9370359055        2.4846637830
 H          3.6583598558       -0.0051393968        2.9830727280
 H          1.8392852298        0.1964496150        1.3312672166
 H          2.8372754508       -0.2110650690       -2.5984596913
 H          3.7819984151       -1.9877938830       -1.2908153734
 H          3.3472453481       -3.8295573243        0.2956686661
 H          1.1083976302       -4.1157510007        1.2781761448
 C         -1.1512236602       -2.6681083330        0.7563434399
 H         -1.0222786867       -3.1037807452        1.7624451977
 C         -2.0195703969       -3.6260045696       -0.0423025462
 C         -1.8639998773       -3.8085496826       -1.5190607062
 C         -1.4588089981       -4.9071053596       -0.5847200317
 H         -2.0743300655       -5.7923753880       -0.5346258549
 H         -0.4028143160       -5.0930821220       -0.4637485854
 H         -2.7613957108       -3.9204068078       -2.1078486534
 H         -1.0853044276       -3.2503354094       -2.0173915950
 H         -3.0329388347       -3.6656782550        0.3385191389
 O         -3.6416656060       -1.4293074765       -0.4714324438
