  62
        -98.94524639
 C         -0.9472654102       -1.5729872997       -0.4279042213
 C         -2.1514564702       -1.7030025002        0.3132927287
 C         -3.2375928504       -0.7851962502       -0.0419780010
 C         -3.0571703805        0.1056405202       -1.0337483306
 C         -4.0992916007        1.0472119702       -1.5761212903
 C         -4.2556178409        2.3569888799       -0.7930821798
 C         -4.8998570408        2.2196161292        0.5865113502
 H         -5.8490486508        1.6913007091        0.4916569500
 H         -5.1248650410        3.2287814291        0.9374901706
 C         -4.0181728007        1.5158636890        1.6278553299
 H         -4.0284139408        2.0851312386        2.5597878601
 H         -2.9846090207        1.4900603193        1.2757974399
 C         -4.4564487805        0.0902799488        1.9624817194
 H         -5.4434388205        0.1080736684        2.4301655094
 H         -3.7491156604       -0.3265258014        2.6838446092
 C         -4.5073909604       -0.8507237008        0.7516364690
 H         -5.3634611204       -0.6078453907        0.1221061091
 H         -4.6198453602       -1.8750239409        1.1151476586
 H         -4.8775367510        3.0228122800       -1.3961828495
 H         -3.2728763609        2.8190461200       -0.6918943696
 H         -3.7938243907        1.2910557306       -2.5960960002
 H         -5.0602374006        0.5327255701       -1.6185526705
 O         -1.8830539305        0.2153688606       -1.7073037006
 C         -0.7991874204       -0.6064881393       -1.4226840209
 O          0.1973233896       -0.3709838989       -2.1323166208
 H          2.0597153796       -0.6747999592       -0.6961665810
 C          2.1085842597       -1.0066590595        0.3289784289
 C          1.2065448798       -1.9515569499        0.8003305585
 C          1.2827376799       -2.3455934504        2.1323088784
 C          2.2483534598       -1.8194713305        2.9707962486
 C          3.1521017597       -0.8865725902        2.4971852189
 C          3.0778047996       -0.4767154597        1.1697754291
 N          3.9882266894        0.4654408906        0.6737806695
 S          3.5584205793        1.5435590110       -0.5230936301
 O          3.6045598694        0.9089443815       -1.8147217004
 O          4.4846859991        2.6450430211       -0.3427470497
 C          1.9142182392        2.1150834206       -0.1332121699
 C          1.0296964591        2.3614133909       -1.1617126098
 C         -0.2182245210        2.8852075405       -0.8617037796
 C         -0.5576172810        3.1494654400        0.4553219705
 C          0.3407405791        2.8909924497        1.4789896204
 C          1.5917249591        2.3758541200        1.1843018902
 H          2.3101086692        2.1791625799        1.9632107501
 H          0.0699269590        3.0926841093        2.5029558505
 H         -1.5258935811        3.5642592297        0.6906052707
 H         -0.9173706510        3.0752914807       -1.6609470695
 H          1.3212963092        2.1213109313       -2.1712018099
 H          4.5991199294        0.8830288005        1.3599904096
 H          3.9126551796       -0.4777098403        3.1447424191
 H          2.2983938699       -2.1379110709        4.0007772485
 H          0.5699296100       -3.0653187506        2.5074079481
 C          0.1612482299       -2.5604250397       -0.1032982917
 H         -0.3363060400       -3.3596125700        0.4638524980
 C          0.7937032500       -3.1788286691       -1.3342958819
 C          1.4849398202       -4.5018070691       -1.2046696924
 C          0.1787289302       -4.4062853390       -1.9334708324
 H          0.1757800002       -4.5080202486       -3.0084047924
 H         -0.7026641297       -4.8083229593       -1.4550618925
 H          1.4883467703       -4.9711237094       -0.2324086726
 H          2.3836760802       -4.6705899487       -1.7778634325
 H          1.2186461499       -2.4544442188       -2.0170615116
 O         -2.3178350501       -2.5674820706        1.2146314183
