  62
        -98.94231528
 C         -1.5025834684       -1.3278641452        0.2953791736
 C         -2.1939575922       -0.8746818261       -0.8540719156
 C         -3.2210556837        0.1514597932       -0.6166453033
 C         -3.4503724863        0.5800739396        0.6381736683
 C         -4.4197486103        1.6635264761        1.0113408016
 C         -3.7333282665        3.0366654444        1.0262451614
 C         -2.9105329510        3.3265767653       -0.2293000264
 H         -2.4924690129        4.3300050157       -0.1223109681
 H         -2.0687080768        2.6311059334       -0.2725571373
 C         -3.7045993581        3.2402475487       -1.5405023596
 H         -3.4496206836        4.1014322207       -2.1618561268
 H         -4.7731124518        3.2984519352       -1.3301174292
 C         -3.4211202859        1.9896075181       -2.3752811126
 H         -3.8678234459        2.1330131711       -3.3627931305
 H         -2.3429147437        1.8804265181       -2.5199301819
 C         -3.9676786444        0.6710347231       -1.8129178616
 H         -5.0307277241        0.7795088956       -1.5885656049
 H         -3.8557553348       -0.0910109908       -2.5898876845
 H         -3.0670404464        3.0819945155        1.8907191536
 H         -4.4984865187        3.8055107783        1.1465367918
 H         -5.2460324470        1.6658726529        0.3033740654
 H         -4.8080583330        1.4502397502        2.0085853395
 O         -2.7762397751        0.1090775413        1.7178012740
 C         -1.7800814552       -0.8449792599        1.5743460528
 O         -1.2235311705       -1.1733854147        2.6396529898
 H          0.3744822028        0.1731741852       -0.2797868973
 C          1.0027777601       -0.5357440841       -0.8060179789
 C          0.7206127653       -1.8916898231       -0.7151772164
 C          1.5499347312       -2.7792606182       -1.3924894675
 C          2.6250158721       -2.3203979630       -2.1337928014
 C          2.9000144622       -0.9670072551       -2.2198464084
 C          2.0728583000       -0.0734744751       -1.5569474034
 N          2.3768913984        1.3125072354       -1.6070803318
 S          3.5653254514        1.7500139973       -0.5052142452
 O          3.6008322973        3.1945297457       -0.5040763678
 O          4.7859228760        1.0757966633       -0.8628547846
 C          2.9488890788        1.1388989138        1.0521157301
 C          2.0993099753        1.9391998922        1.7898574461
 C          1.5102272529        1.4189580859        2.9307616028
 C          1.7657651802        0.1082953260        3.3036599779
 C          2.6211542379       -0.6816342865        2.5515545072
 C          3.2177555005       -0.1664072482        1.4120458729
 H          3.8831288617       -0.7514907781        0.7978279490
 H          2.8125095136       -1.7018620938        2.8427299334
 H          1.2807864454       -0.3035252604        4.1741048334
 H          0.8409465339        2.0276783278        3.5178098535
 H          1.9204410610        2.9514835070        1.4620557537
 H          1.5677410015        1.8957746034       -1.4432275578
 H          3.7431647416       -0.5900319691       -2.7749283945
 H          3.2585442347       -3.0257432803       -2.6493945529
 H          1.3540701199       -3.8376515391       -1.3338514063
 C         -0.4094621432       -2.3686818141        0.1660754829
 H         -0.0012690601       -2.5032077047        1.1795395775
 C         -0.9957757188       -3.6883317227       -0.2997218018
 C         -0.4689667067       -4.9882394744        0.2277708965
 C         -1.8134263005       -4.4924388963        0.6648435570
 H         -2.6969148965       -4.9945724082        0.3002665368
 H         -1.9149245810       -4.1048150791        1.6683869257
 H         -0.4304006894       -5.8369338431       -0.4386188790
 H          0.3369905429       -4.9508526659        0.9451327404
 H         -1.3319252466       -3.6513676647       -1.3294868107
 O         -1.9624774852       -1.2946533850       -2.0178438432
