  62
        -98.94436970
 C          2.3700018882        1.1346634804        0.2398936510
 C          2.3812200505       -0.1544476755       -0.3460865975
 C          3.3920113694       -1.0828960838        0.1780563644
 C          4.2078815075       -0.6967674411        1.1752979412
 C          5.2711647314       -1.5371004164        1.8288939963
 C          6.6056631673       -1.5570154655        1.0708280939
 C          6.6058058078       -2.3686265721       -0.2251839453
 H          7.6472518967       -2.4795590385       -0.5334299276
 H          6.2168675132       -3.3678591552       -0.0268091737
 C          5.8173671082       -1.7263566275       -1.3750388706
 H          5.6495927643       -0.6694042249       -1.1560509353
 H          6.4078880844       -1.7735933551       -2.2927619540
 C          4.4713601412       -2.3892336271       -1.6685662208
 H          4.6336770656       -3.4116816200       -2.0170279598
 H          3.9830620883       -1.8333519940       -2.4730458221
 C          3.5125230340       -2.4286704030       -0.4712739345
 H          2.5205962015       -2.7134321798       -0.8320138270
 H          3.8453120216       -3.1722185829        0.2528107779
 H          6.9005398531       -0.5273993145        0.8559850621
 H          7.3544229033       -1.9842409747        1.7417367369
 H          5.4430708696       -1.1054902656        2.8172456497
 H          4.9064089444       -2.5570306215        1.9541258826
 O          4.1416416006        0.5402629384        1.7350947411
 C          3.2350500418        1.4820630627        1.2803996399
 O          3.2933810325        2.5770012325        1.8747478740
 O          1.5995968927       -0.5219396988       -1.2628250751
 C          1.3765208326        2.1959310019       -0.2076195515
 C         -0.0042693810        1.7424695262        0.1990530365
 C         -0.4000874748        1.8954487730        1.5253506343
 C         -1.6303045471        1.4330560706        1.9516833061
 C         -2.4885465076        0.8001244352        1.0683392782
 C         -2.0952310514        0.6269189794       -0.2509778188
 C         -0.8668580519        1.1123040736       -0.6826922111
 H         -0.5702765114        0.9601513139       -1.7080920952
 N         -2.9532554695       -0.0192321658       -1.1559640068
 S         -3.7332351806       -1.4228457970       -0.6714561860
 O         -2.9745272980       -2.1520657859        0.3183274993
 O         -4.0359966558       -2.1275247984       -1.8984024939
 C         -5.2558708211       -0.8298118296        0.0394542251
 C         -6.0197821605        0.0543522270       -0.6971269464
 C         -7.2125457371        0.5146005944       -0.1628688685
 C         -7.6217751033        0.0827532365        1.0900211109
 C         -6.8460338965       -0.8083372632        1.8153152440
 C         -5.6508691391       -1.2713938141        1.2869930145
 H         -5.0120675840       -1.9595060896        1.8177969225
 H         -7.1656378782       -1.1438914761        2.7888636062
 H         -8.5506498670        0.4424486139        1.5036403586
 H         -7.8183363310        1.2078331973       -0.7238845800
 H         -5.6683159352        0.3637676207       -1.6670842626
 H         -2.5535559781       -0.1322379900       -2.0766419567
 H         -3.4438154899        0.4251678092        1.3974587590
 H         -1.9251513666        1.5622762995        2.9820464597
 H          0.2797209019        2.3707574377        2.2193015329
 H          1.6211337665        3.0982999425        0.3682653708
 C          1.5163545218        2.5074432286       -1.6827787076
 C          0.8953777987        3.7557985159       -2.2313776446
 C          2.3851229961        3.6511955294       -2.1079681157
 H          2.9722882431        3.5444488998       -3.0078642283
 H          2.8764970609        4.2200839099       -1.3321165539
 H          0.4582593217        3.7250621165       -3.2177321905
 H          0.3733703019        4.3970206904       -1.5375133246
 H          1.5239800056        1.6245556657       -2.3099036751
