  62
        -98.93902435
 C         -0.9110999526       -1.4204364044        0.2202873652
 C         -1.9269033527       -1.1810387785        1.1758637637
 C         -2.6990142770        0.0633748808        1.0257673190
 C         -2.3654852555        0.9201527181        0.0457087307
 C         -3.0412052958        2.2191566561       -0.2968679417
 C         -4.0983601986        2.0101703794       -1.3941169214
 C         -5.4831072266        1.6137464216       -0.8833857732
 H         -5.9449959389        2.4741296214       -0.3945981335
 H         -6.0928382581        1.3658699058       -1.7551926208
 C         -5.5105827750        0.4297515256        0.0870981540
 H         -6.5208373430        0.0159990391        0.0812369048
 H         -4.8388412536       -0.3541110611       -0.2674178159
 C         -5.1442763769        0.8183846849        1.5275837045
 H         -5.9077306541        0.4379323587        2.2093758075
 H         -5.1630199592        1.9043966341        1.6193180274
 C         -3.7952037552        0.2822201175        2.0323169521
 H         -3.9433498549       -0.6976111520        2.4977365057
 H         -3.4170834688        0.9441755563        2.8194736523
 H         -3.7238931909        1.2439887235       -2.0774629142
 H         -4.2015702087        2.9358983263       -1.9636184963
 H         -3.4771141711        2.6693728845        0.5902851958
 H         -2.2644416083        2.8836707600       -0.6798605293
 O         -1.3544493966        0.6734330892       -0.8289917067
 C         -0.5972665725       -0.4856068696       -0.7675276547
 O          0.2985664733       -0.5506897443       -1.6283106450
 O         -2.1806714663       -1.9784125742        2.1206576743
 C         -0.0840281068       -2.6834101236        0.3686935776
 C          1.3885316766       -2.3665605131        0.2688119204
 C          2.2995138608       -3.1526649178       -0.4254036495
 C          3.6399519684       -2.8087524499       -0.4613712160
 C          4.0966083519       -1.6663646874        0.1683128243
 C          3.1914037072       -0.8689131875        0.8599998805
 C          1.8592570978       -1.2370412861        0.9275190355
 H          1.1732173921       -0.6125535013        1.4813599863
 N          3.6067247621        0.3143424328        1.4972752094
 S          2.6729039286        1.6908330574        1.3768530785
 O          3.5722158354        2.7597542179        1.7662108387
 O          1.4814472650        1.5660529220        2.1815339516
 C          2.2330355163        1.9175373823       -0.3376048316
 C          1.0566549044        2.5835354041       -0.6108531993
 C          0.7163599732        2.8368593274       -1.9288928275
 C          1.5533639290        2.4170340212       -2.9490524208
 C          2.7332241383        1.7524987394       -2.6591722883
 C          3.0838439920        1.5053599706       -1.3422812771
 H          3.9973748141        0.9871873277       -1.1016755214
 H          3.3793209322        1.4183855512       -3.4549777079
 H          1.2791096925        2.6023631443       -3.9756929218
 H         -0.2058191625        3.3476810404       -2.1569048997
 H          0.4239397675        2.8730773468        0.2143261063
 H          4.5869709631        0.5334982154        1.3916766738
 H          5.1394168417       -1.3901002086        0.1260930027
 H          4.3360255390       -3.4318561557       -1.0017850936
 H          1.9621878834       -4.0303120577       -0.9511802317
 H         -0.2819154878       -3.0164969550        1.4024358167
 C         -0.5179755722       -3.8232446138       -0.5441175018
 C         -1.8559763515       -3.8172732346       -1.2195105619
 C         -0.6079483243       -3.6488588314       -2.0298888201
 H         -0.2959361437       -4.4657205836       -2.6639572311
 H         -0.3807376828       -2.6712394706       -2.4248978537
 H         -2.3973411065       -4.7491826140       -1.2879236015
 H         -2.4902099703       -2.9551401606       -1.0712998234
 H         -0.1752658074       -4.7889838487       -0.1859842074
