  62
        -98.94084503
 C         -1.5930291255       -1.6427155994        0.4224343358
 C         -2.0862045579       -1.0889253591       -0.7844315245
 C         -3.0690498852       -0.0009465133       -0.6389457765
 C         -3.4028200010        0.4361717602        0.5880688420
 C         -4.3569965459        1.5592042962        0.8732428483
 C         -3.6375673442        2.9130189610        0.9524577643
 C         -2.6985759979        3.1849916359       -0.2224515177
 H         -2.2680533082        4.1777305327       -0.0750376640
 H         -1.8718783118        2.4727012287       -0.1939043819
 C         -3.3685825439        3.1158212946       -1.6013584907
 H         -3.0351696326        3.9687157875       -2.1964065394
 H         -4.4508912641        3.1981912858       -1.4950574725
 C         -3.0328155110        1.8562919906       -2.4021661639
 H         -1.9479122554        1.7232121458       -2.4354741651
 H         -3.3711408501        2.0075902046       -3.4308742916
 C         -3.6705023080        0.5542486656       -1.9001465832
 H         -4.7462678703        0.6986881088       -1.7792331583
 H         -3.5115893848       -0.2082209512       -2.6686409416
 H         -4.3919132262        3.6999656126        1.0054480459
 H         -3.0523539724        2.9445523328        1.8743356917
 H         -5.1158170522        1.5868413162        0.0933241056
 H         -4.8418718423        1.3597990442        1.8304533376
 O         -2.8700043728       -0.0838887335        1.7227796234
 C         -1.9730193245       -1.1384775567        1.6705741498
 O         -1.5904564656       -1.5374101395        2.7864916966
 H          0.4289747029       -1.2213574940       -1.4357636953
 C          1.1563039515       -1.4437613805       -0.6684797526
 C          0.8000718263       -2.2815167158        0.3797076452
 C          1.7461777114       -2.5619419996        1.3573537298
 C          3.0166913994       -2.0150626135        1.2860163953
 C          3.3623211810       -1.1666306842        0.2495185535
 C          2.4200372837       -0.8790399541       -0.7297722038
 N          2.7382110613        0.0437754422       -1.7475330305
 S          3.2278784113        1.5474800368       -1.1851518925
 O          2.7307861576        2.5083262428       -2.1446602394
 O          4.6567147352        1.5379070400       -0.9933716790
 C          2.4209978626        1.7435236364        0.3974774548
 C          1.0450299959        1.6379715682        0.4584492181
 C          0.4205779715        1.7229083430        1.6915480444
 C          1.1759569842        1.9205227812        2.8369922152
 C          2.5544724223        2.0379582772        2.7583345995
 C          3.1857565848        1.9418474737        1.5285410604
 H          4.2562411676        2.0099309967        1.4230555684
 H          3.1380086750        2.1934465363        3.6512690234
 H          0.6809267857        1.9752454871        3.7936237242
 H         -0.6507185759        1.6162586995        1.7607999527
 H          0.4780830246        1.4845968224       -0.4473081848
 H          1.9960061189        0.1496381864       -2.4253760643
 H          4.3375277081       -0.7106786000        0.1883411726
 H          3.7413471051       -2.2412187955        2.0528108389
 H          1.4741116599       -3.1958072510        2.1882192209
 C         -0.6097334501       -2.8044105418        0.4703588771
 H         -0.7362464669       -3.2451381544        1.4711346542
 C         -0.9232282950       -3.8920488362       -0.5484572118
 C         -0.0278224891       -4.2412196333       -1.6959485801
 C         -0.1417561534       -5.1725982793       -0.5292167168
 H         -0.6698798895       -6.1053822146       -0.6559480018
 H          0.6990169958       -5.2281060682        0.1459930621
 H          0.8916746992       -3.6908576969       -1.8191371022
 H         -0.4970102142       -4.5137833822       -2.6292054042
 H         -1.9890857066       -3.9788526305       -0.7329549869
 O         -1.7422228992       -1.4658769849       -1.9354305007
