  62
        -98.93441336
 C          2.4450250515        1.4850044991        0.2560034443
 C          2.7431684023        0.6038572305       -0.8085528476
 C          3.7164165493       -0.4761515163       -0.5311321983
 C          4.2383864992       -0.5863380745        0.7036827595
 C          5.2055187907       -1.6151341217        1.2272424200
 C          4.5417121846       -2.9751247493        1.4926763367
 C          3.6061350024       -3.4584574674        0.3878084825
 H          3.1305757324       -4.3799869498        0.7345661452
 H          2.8110889075       -2.7237734038        0.2435719490
 C          4.2783948154       -3.7541295917       -0.9510998281
 H          5.0541061408       -4.5085738483       -0.8029897919
 H          3.5165273393       -4.1858346132       -1.6055212564
 C          4.8960527298       -2.5530079773       -1.6712224984
 H          5.8562305083       -2.2845511986       -1.2391258536
 H          5.0945456680       -2.8601661369       -2.7021908605
 C          3.9925831159       -1.3266743955       -1.7482536844
 H          4.3997495282       -0.6393959296       -2.4996608488
 H          3.0130954022       -1.6286692429       -2.1372485801
 H          3.9555594684       -2.8927380082        2.4114198442
 H          5.3263809371       -3.7153926644        1.6579580005
 H          6.0447519405       -1.7212365708        0.5463380276
 H          5.5906556446       -1.2270016545        2.1728045225
 O          3.8974496918        0.2684497908        1.7105021934
 C          3.0141164423        1.3097373272        1.5202564036
 O          2.8201387009        2.0108119220        2.5337571301
 H          0.1428368297        0.7249867767       -1.1667382299
 C         -0.4668953435        1.1928955193       -0.4073547518
 C          0.0703455888        2.2259749309        0.3490643059
 C         -0.7218286504        2.8154205769        1.3266056496
 C         -2.0196128083        2.3815155299        1.5359974709
 C         -2.5528400632        1.3562057923        0.7755694672
 C         -1.7664583537        0.7557432530       -0.1991267620
 N         -2.2987482178       -0.2860612037       -0.9817506797
 S         -2.9745255175       -1.5914086364       -0.1680157452
 O         -2.3777660442       -1.7679833545        1.1364977899
 O         -2.8685049884       -2.7084830596       -1.0811321078
 C         -4.6890847596       -1.1395877695       -0.0031159901
 C         -5.2825706454       -1.1256519549        1.2438444952
 C         -6.6205640710       -0.7768051361        1.3451106289
 C         -7.3371289704       -0.4506760855        0.2038515246
 C         -6.7267389754       -0.4720381398       -1.0415566888
 C         -5.3900814539       -0.8208522586       -1.1498599212
 H         -4.8790047589       -0.8526532263       -2.0975715799
 H         -7.2870654548       -0.2176812836       -1.9267891597
 H         -8.3774733988       -0.1781833160        0.2856084603
 H         -7.0965336079       -0.7599142390        2.3124003623
 H         -4.6837267490       -1.3805099138        2.1038451848
 H         -1.6594561474       -0.6085949051       -1.6949063647
 H         -3.5617184885        1.0125276201        0.9358748758
 H         -2.6228892160        2.8463593409        2.3007233459
 H         -0.3071615822        3.6051515994        1.9359575304
 C          1.4945865717        2.6661819329        0.1285292955
 H          1.7654105187        3.3356356624        0.9599681922
 C          1.6938278006        3.4472102093       -1.1645989461
 C          0.6665686478        3.5461769270       -2.2485357179
 C          0.9482395233        4.7314881551       -1.3784526185
 H          1.4760437515        5.5741533150       -1.7984008887
 H          0.2032769970        4.9965721338       -0.6432383037
 H          1.0195550273        3.5518026713       -3.2686033591
 H         -0.2711650825        3.0301641669       -2.1168501549
 H          2.7291437322        3.4282518010       -1.4895676947
 O          2.2316817102        0.6849697488       -1.9568998621
