  62
        -98.93761495
 C         -1.8584567551       -0.1870510919       -0.0792841952
 C         -2.8812008937       -1.0871608524        0.3029915181
 C         -4.2063141320       -0.4980020818        0.5444323932
 C         -4.3645297686        0.8317140013        0.4126970636
 C         -5.6665508345        1.5700130844        0.5423866343
 C         -6.5054218518        1.3824515565       -0.7380631080
 C         -7.8039321326        0.6015442583       -0.5336181439
 H         -8.5366948937        1.2517587345       -0.0510448291
 H         -8.1908605414        0.3466895028       -1.5226000254
 C         -7.6903780657       -0.6770445503        0.3021420315
 H         -7.6670198178       -0.4215869115        1.3625660614
 H         -8.6089003006       -1.2448926730        0.1392527434
 C         -6.4910476834       -1.5806171814       -0.0119751918
 H         -6.1422779890       -1.4162340436       -1.0317567569
 H         -6.8239315424       -2.6189119946        0.0466252683
 C         -5.3065322985       -1.4345594140        0.9615647158
 H         -5.6785771052       -1.1455251466        1.9483491671
 H         -4.8192496388       -2.4084245156        1.0661959104
 H         -6.7561171273        2.3591108456       -1.1548835874
 H         -5.8865839253        0.8745736546       -1.4809343630
 H         -6.2101029859        1.2091811677        1.4126817880
 H         -5.4291480435        2.6236712546        0.6902981225
 O         -3.3520441796        1.6667551356        0.0612807529
 C         -2.0766118400        1.1850819566       -0.1972459162
 O         -1.2513227167        2.0625198145       -0.5130066682
 O         -2.6923508926       -2.3259519017        0.4404020893
 C         -0.4710535572       -0.7358386867       -0.3639822503
 C          0.5303330130       -0.0927448791        0.5620943075
 C          0.3255527284       -0.1992048785        1.9364858052
 C          1.1925336460        0.3982377947        2.8291054933
 C          2.2915599333        1.1051045518        2.3715026551
 C          2.5091659394        1.2131365395        1.0041025314
 C          1.6345037369        0.6099415503        0.1084631044
 H          1.8201855066        0.7278544135       -0.9452961353
 N          3.6072077424        1.9388696445        0.5143076976
 S          4.5646136898        1.3128232311       -0.7037185722
 O          5.7621090694        2.1232191672       -0.6752406996
 O          3.8439395675        1.2835358954       -1.9499885806
 C          4.9394052372       -0.3427682275       -0.1575252149
 C          4.1675165239       -1.3994768586       -0.5954294081
 C          4.4273388647       -2.6673366016       -0.0989186270
 C          5.4471525768       -2.8553347210        0.8208893768
 C          6.2170277536       -1.7835036192        1.2472341438
 C          5.9593252323       -0.5132805921        0.7587016986
 H          6.5396270696        0.3451430570        1.0560846635
 H          7.0126861531       -1.9339914769        1.9589742192
 H          5.6439998537       -3.8437243636        1.2051813502
 H          3.8307959692       -3.5020886993       -0.4309440528
 H          3.3863286389       -1.2157622079       -1.3141349814
 H          4.1765805856        2.3647993403        1.2309324165
 H          2.9666316310        1.5807171055        3.0666779482
 H          1.0153560059        0.3126729005        3.8905743834
 H         -0.5350051745       -0.7491052335        2.2924508460
 H         -0.5287006882       -1.8068089345       -0.1198305330
 C         -0.1355760661       -0.5902108382       -1.8325451083
 C          0.7990866206       -1.5593375074       -2.4901862136
 C         -0.6659312253       -1.6005726654       -2.8035392930
 H         -0.9993547841       -1.2586630266       -3.7719076631
 H         -1.2517990057       -2.4143291173       -2.4015832637
 H          1.4787856805       -1.1888462528       -3.2436125924
 H          1.2000704051       -2.3547599641       -1.8799864488
 H         -0.1119545963        0.4438160459       -2.1590830567
