  62
        -98.93690904
 C         -1.4742697620       -0.4630784289        0.7073807631
 C         -2.7700525002       -0.2873534043        1.2468801032
 C         -3.8815022517       -0.1557331230        0.2872531252
 C         -3.6133319258       -0.2093481699       -1.0297246626
 C         -4.5644513767       -0.0871118802       -2.1935294569
 C         -5.8923036999       -0.8524222155       -2.0834933996
 C         -7.1058593504        0.0592508354       -1.8934022228
 H         -6.9779582781        0.9429654092       -2.5221216333
 H         -7.9960406792       -0.4656523049       -2.2471921823
 C         -7.3702515903        0.4976814791       -0.4540047061
 H         -8.1636677956        1.2484154989       -0.4779298945
 H         -7.7451557643       -0.3527374701        0.1195872680
 C         -6.1643264886        1.0825171263        0.2839354596
 H         -5.5910966592        1.7333064446       -0.3756375397
 H         -6.5413616679        1.7065859824        1.0970458510
 C         -5.2446473937        0.0174482905        0.8999118649
 H         -5.7519586453       -0.9514511766        0.9118694781
 H         -5.0463059381        0.2653669006        1.9472603861
 H         -6.0324552311       -1.4092851837       -3.0113964020
 H         -5.8345978553       -1.5807323655       -1.2761870737
 H         -4.7607712519        0.9736890601       -2.3692060607
 H         -4.0001545958       -0.4441983786       -3.0581466934
 O         -2.3459342804       -0.3700812555       -1.5063999908
 C         -1.2494017691       -0.4919788450       -0.6684048007
 O         -0.1669094585       -0.6335975375       -1.2668254503
 O         -2.9932678903       -0.2384294322        2.4870469944
 C         -0.3011266195       -0.5674547824        1.6684238524
 C          0.4966902231        0.7108037857        1.5797177625
 C         -0.0657785627        1.8898461076        2.0642657754
 C          0.6219084606        3.0845199247        1.9804367941
 C          1.8771174841        3.1321327706        1.3967813454
 C          2.4438299826        1.9643820820        0.9041172298
 C          1.7588097633        0.7612548416        1.0118757384
 H          2.2152678560       -0.1363644101        0.6361352945
 N          3.7229897209        1.9644509336        0.3182363133
 S          3.8865901114        1.2939654239       -1.2177463141
 O          5.1340124910        1.8446768511       -1.7092771350
 O          2.7216101825        1.5546297428       -2.0298793642
 C          4.1089530236       -0.4477841304       -0.9304764438
 C          3.1578104905       -1.3499858987       -1.3647575841
 C          3.3622969306       -2.6994401119       -1.1187712144
 C          4.5023252499       -3.1185655103       -0.4501229885
 C          5.4482636083       -2.1976035393       -0.0247532068
 C          5.2531327485       -0.8478109068       -0.2678784602
 H          5.9639672512       -0.0986764101        0.0385493093
 H          6.3326978684       -2.5277335161        0.4958186670
 H          4.6514587878       -4.1697636686       -0.2587256829
 H          2.6224267714       -3.4133381293       -1.4455120771
 H          2.2656955875       -0.9853213049       -1.8513040278
 H          4.1880004690        2.8614016116        0.3511577612
 H          2.4120819340        4.0671748563        1.3212479185
 H          0.1766003804        3.9898960214        2.3650519503
 H         -1.0519853400        1.8534915481        2.5061717919
 H         -0.7517403354       -0.6139447050        2.6699227884
 C          0.5180944160       -1.8185661918        1.4369679652
 C          1.4951732043       -2.2676342532        2.4810276686
 C          0.2369730309       -3.0469064035        2.2468525248
 H          0.3070430467       -4.0089254238        1.7622219382
 H         -0.5464677197       -2.9884383199        2.9882872515
 H          2.4332464639       -2.6917853908        2.1563842802
 H          1.5654397970       -1.6780259562        3.3823864400
 H          0.7886826685       -1.9621142727        0.3983165388
