  62
        -98.93989750
 C         -1.8553975719       -0.5985851995        0.0236414708
 C         -2.3933247923        0.6944405559        0.2524259766
 C         -3.7913302480        0.9036426481       -0.1446989697
 C         -4.4703606468       -0.1115597057       -0.7085407992
 C         -5.9142046578       -0.0593772867       -1.1144705921
 C         -6.8297937692       -0.5211420353        0.0278674348
 C         -6.5292948347        0.1479413655        1.3690679764
 H         -7.2551409586       -0.2309238012        2.0918332814
 H         -5.5406788066       -0.1666574920        1.7111190167
 C         -6.5890525638        1.6815953133        1.3407920234
 H         -7.1379688189        2.0153429572        0.4594873026
 H         -7.1418491035        2.0270627011        2.2169248138
 C         -5.2232774247        2.3701372802        1.3767386325
 H         -4.6326848068        1.9715570946        2.2055913987
 H         -5.3833135580        3.4339171433        1.5722429903
 C         -4.3871470116        2.2622488020        0.0951800259
 H         -4.9859933095        2.5768826031       -0.7621752904
 H         -3.5398732110        2.9477178386        0.1921670344
 H         -7.8643345000       -0.3210423415       -0.2566881667
 H         -6.7132735063       -1.6003881802        0.1501451959
 H         -6.1662510271        0.9578263010       -1.4080530556
 H         -6.0548033876       -0.7208547443       -1.9709197915
 O         -3.9200982227       -1.3296680721       -0.9307894634
 C         -2.6052132438       -1.6117510271       -0.5762502628
 O         -2.2573782508       -2.7745509087       -0.8488240233
 O         -1.7313166237        1.6316586708        0.7756171318
 C         -0.4124617167       -0.8186021176        0.4464956935
 C          0.5144218977       -0.5150828210       -0.7031206747
 C          0.3803290297       -1.1753347175       -1.9220876876
 C          1.2154465104       -0.8687677256       -2.9794986796
 C          2.2026834795        0.0919308848       -2.8421788488
 C          2.3425827924        0.7590574933       -1.6312230389
 C          1.5027969822        0.4487853885       -0.5683572877
 H          1.6049089801        0.9955663912        0.3570127288
 N          3.3247693804        1.7450806055       -1.4742188888
 S          4.0995867505        1.9597011627       -0.0146887358
 O          3.2559416448        2.6715904980        0.9115643173
 O          5.3425200790        2.6140159279       -0.3645555743
 C          4.4382402466        0.3207726711        0.6061438702
 C          4.9957511727       -0.6155331038       -0.2425296743
 C          5.2772668195       -1.8806748206        0.2467267060
 C          5.0086417756       -2.1854742656        1.5722045711
 C          4.4577908557       -1.2324359914        2.4143577011
 C          4.1652922389        0.0324216716        1.9275500977
 H          3.7226199036        0.7985993423        2.5443418747
 H          4.2482298746       -1.4700497118        3.4450495444
 H          5.2266366668       -3.1711480497        1.9510363809
 H          5.7041487730       -2.6244874891       -0.4063801145
 H          5.2043506207       -0.3504286195       -1.2659791991
 H          3.9437390864        1.8700357422       -2.2610090685
 H          2.8515227130        0.3344834753       -3.6699194736
 H          1.0997240416       -1.3852244181       -3.9203376191
 H         -0.3877494456       -1.9263466060       -2.0268202945
 H         -0.2303840205       -0.0566481084        1.2210714124
 C         -0.1697887647       -2.1843809627        1.0756433112
 C          0.8001469779       -3.1859102636        0.5294147658
 C          1.1218929967       -2.4478130895        1.7911879279
 H          1.0954942481       -2.9813020097        2.7290003319
 H          1.8776707736       -1.6782080802        1.7392123290
 H          0.5250279874       -4.2275928010        0.5905594932
 H          1.3516910000       -2.9320589411       -0.3616706579
 H         -1.0673636983       -2.5896317376        1.5301442540
