  62
        -98.93169573
 C         -2.3817955548        1.0744069268       -0.2876153576
 C         -3.0611414930        0.1396950910       -1.1072684541
 C         -4.4136414118       -0.2676089395       -0.6904961673
 C         -4.9343540035        0.2498781857        0.4377900859
 C         -6.2889914362        0.0698353490        1.0909382860
 C         -7.2442097988       -1.0216070154        0.6167058348
 C         -6.7910830211       -2.4460869238        0.9372253968
 H         -7.4761853937       -3.1426818311        0.4493333791
 H         -6.8729924949       -2.5999554511        2.0161257356
 C         -5.3597294238       -2.7897329184        0.5326542555
 H         -5.1596997670       -3.8166590600        0.8502463431
 H         -4.6609662237       -2.1453313697        1.0698662522
 C         -5.0642463061       -2.7020875049       -0.9629912582
 H         -5.7701616150       -3.3259756693       -1.5149288280
 H         -4.0616338013       -3.1071642650       -1.1257940664
 C         -5.0933642907       -1.2856511460       -1.5607100998
 H         -6.1097497078       -0.9767679422       -1.7932594229
 H         -4.5340344447       -1.3048540919       -2.5008226998
 H         -7.4428052359       -0.9110165732       -0.4452790192
 H         -8.1924365058       -0.8532706027        1.1343556822
 H         -6.7922732573        1.0380375089        0.9930395971
 H         -6.0913092261       -0.0656542493        2.1590511262
 O         -4.2392214312        1.1402938353        1.2018849348
 C         -2.9580933015        1.5689323581        0.8819758660
 O         -2.4787487773        2.3634298033        1.7091537080
 O         -2.5583990704       -0.3273417929       -2.1661047569
 C         -1.0024701571        1.5053496780       -0.7506543430
 C          0.0805086748        0.6466745195       -0.1522069994
 C          0.1652998883        0.4266849180        1.2191779468
 C          1.1928485440       -0.3351039320        1.7460922678
 C          2.1556171899       -0.8902911620        0.9199438915
 C          2.0710705687       -0.6875818450       -0.4498240464
 C          1.0381867625        0.0737006112       -0.9762853695
 H          0.9793904597        0.2241097991       -2.0464618644
 N          3.0789800284       -1.2321144456       -1.2879107291
 S          4.4488768014       -0.2478186704       -1.3558171467
 O          4.0790006669        1.1497013797       -1.4105442418
 O          5.2325632434       -0.7417136047       -2.4661410614
 C          5.2724844286       -0.6027603360        0.1782850483
 C          5.2581966124        0.3345213563        1.1920435045
 C          5.8834940077        0.0309150302        2.3913130376
 C          6.5064751340       -1.1972731477        2.5534546457
 C          6.5124831484       -2.1271171729        1.5239589828
 C          5.8889321891       -1.8304992285        0.3226479303
 H          5.8717941350       -2.5196241364       -0.5053127416
 H          6.9988890083       -3.0803335067        1.6547735500
 H          6.9910333029       -1.4308034262        3.4884154203
 H          5.8794003910        0.7517381650        3.1930597479
 H          4.7586057228        1.2747096212        1.0217120111
 H          2.7535417998       -1.3853598616       -2.2336140168
 H          2.9565873596       -1.4873859523        1.3242768422
 H          1.2465634227       -0.4953795570        2.8120522415
 H         -0.5804434207        0.8661520887        1.8648766662
 H         -1.0050000510        1.3152943956       -1.8364546940
 C         -0.7357984036        2.9926363147       -0.5640961729
 C          0.1698973544        3.5590007774        0.4830133131
 C          0.5916165646        3.5751005869       -0.9538152474
 H          0.6082047416        4.5173492504       -1.4806818039
 H          1.3753851710        2.8923352755       -1.2513341643
 H         -0.1290058769        4.4839304023        0.9518097503
 H          0.6709556610        2.8774473530        1.1513485851
 H         -1.6127678631        3.5860920237       -0.8046506259
