  62
        -98.92855607
 C          2.5651184302        0.9267698891        0.6800215888
 C          2.9903685201       -0.3346610609        1.1634612391
 C          4.3715355800       -0.7539472611        0.8589199091
 C          5.1537945101        0.0793112287        0.1484505389
 C          6.5742398300       -0.1273307216       -0.3074070511
 C          6.6820253499       -1.0902529819       -1.4997599109
 C          5.8406110497       -2.3576240317       -1.3772666406
 H          5.9285120596       -2.9064017720       -2.3187342305
 H          4.7909399698       -2.0812053816       -1.2614559806
 C          6.2463819197       -3.3006410415       -0.2469560404
 H          7.2918175196       -3.5884501417       -0.3784621404
 H          5.6386984996       -4.2037308615       -0.3460372302
 C          6.0637177998       -2.7617179712        1.1739980495
 H          6.8669898399       -2.0814792012        1.4442575693
 H          6.1365356197       -3.6137324811        1.8561918996
 C          4.7114576799       -2.1066480810        1.4368017394
 H          4.5774134499       -2.0038209307        2.5203645494
 H          3.9135847498       -2.7847134310        1.1128760896
 H          7.7316831598       -1.3581336720       -1.6324064509
 H          6.3537513699       -0.5575760120       -2.3957243110
 H          7.1872569000       -0.4687895915        0.5214173189
 H          6.9478728801        0.8514684883       -0.6165134214
 O          4.7029145502        1.2831968086       -0.3023194314
 C          3.4157011003        1.7414535288       -0.0679213814
 O          3.1847127704        2.8566287587       -0.5687821816
 O          2.2405727400       -1.0918605906        1.8390012293
 C          1.1454987803        1.3405052393        1.0202772088
 C          0.1703633602        0.9203841492       -0.0507769211
 C          0.4273992101        1.1525349189       -1.3977118111
 C         -0.4910473100        0.7758739388       -2.3614050910
 C         -1.6794189900        0.1636465190       -2.0049590908
 C         -1.9478955300       -0.0706750807       -0.6630093208
 C         -1.0239024899        0.3091905594        0.3031699391
 H         -1.2292798899        0.1116408197        1.3466752092
 N         -3.1486147300       -0.7016456505       -0.2965764806
 S         -4.5536342400       -0.1935727605       -1.0897440806
 O         -4.6693418902       -0.9281983108       -2.3244609005
 O         -4.5552575199        1.2467380295       -1.2082785709
 C         -5.8107794300       -0.7260008201        0.0550653296
 C         -6.2905237599        0.1718260902        0.9900689994
 C         -7.2520788899       -0.2517399795        1.8938486695
 C         -7.7124766600       -1.5591921595        1.8493018098
 C         -7.2211818702       -2.4484858198        0.9049833900
 C         -6.2605601302       -2.0314707301       -0.0026823201
 H         -5.8575527703       -2.6840616703       -0.7594372200
 H         -7.5840386503       -3.4631020597        0.8723846902
 H         -8.4613442800       -1.8859071293        2.5534065099
 H         -7.6381628798        0.4381172907        2.6269440894
 H         -5.9113909698        1.1812954701        0.9815844191
 H         -3.2776375000       -0.7348446903        0.7053643594
 H         -2.4049803001       -0.1284457911       -2.7472584207
 H         -0.2801966700        0.9637139885       -3.4038425211
 H          1.3480521102        1.6404029987       -1.6810432613
 H          0.8997580102        0.7655478395        1.9276082189
 C          1.0201903404        2.8159329994        1.3750219485
 C          0.3879844405        3.8337887193        0.4795072383
 C         -0.3157518795        3.4003337696        1.7282011784
 H         -0.3760865994        4.0894622798        2.5567522683
 H         -1.1840091996        2.7691348397        1.6113632986
 H          0.8368462106        4.8143861792        0.4424969080
 H         -0.0070008196        3.5044805791       -0.4687973816
 H          1.8680574805        3.1586066294        1.9598294784
