  62
        -98.93835567
 C         -0.4420588108       -1.8522253761        0.0546562774
 C         -1.4100019962       -1.4804700455        1.0142010030
 C         -2.7209091396       -1.0413871530        0.4969266115
 C         -2.8937612082       -0.9459291511       -0.8334202732
 C         -4.1219032551       -0.5210221713       -1.5940282283
 C         -4.1632627810        1.0009482740       -1.8126726904
 C         -4.8863869928        1.7785908106       -0.7159215494
 H         -4.8024097456        2.8407403362       -0.9553922180
 H         -5.9480811298        1.5242898459       -0.7338900686
 C         -4.3409004903        1.5404354615        0.6929631464
 H         -3.2509699166        1.5191834341        0.6593774987
 H         -4.6364681929        2.3834566548        1.3199233532
 C         -4.8500623570        0.2405488566        1.3304277950
 H         -5.2825139439        0.4569682190        2.3100018810
 H         -5.6525270860       -0.1796371020        0.7257079944
 C         -3.7637230937       -0.8120275485        1.5592989408
 H         -4.2403414921       -1.7762576310        1.7721902511
 H         -3.1932330839       -0.5527835275        2.4575501997
 H         -3.1347426682        1.3585328818       -1.9024266314
 H         -4.6668878334        1.2017828261       -2.7602378930
 H         -5.0225514506       -0.8692452914       -1.0968700945
 H         -4.0537033541       -1.0115800483       -2.5673067719
 O         -1.8928368507       -1.2185708537       -1.7196507393
 C         -0.6721460768       -1.7260371146       -1.3143086064
 O          0.1029845107       -2.0140650663       -2.2453506080
 O         -1.1978880156       -1.5297484706        2.2570701683
 C          0.8576877914       -2.4776345198        0.5247514004
 C          2.0561531023       -1.8517444701       -0.1413512879
 C          3.0655088948       -2.6004995343       -0.7334390075
 C          4.1527906889       -1.9763658970       -1.3181794709
 C          4.2682071955       -0.5998638964       -1.3035097464
 C          3.2700213218        0.1597886448       -0.7032653171
 C          2.1727605306       -0.4665015359       -0.1348223404
 H          1.3975258087        0.1295977465        0.3276972962
 N          3.3600522146        1.5591394130       -0.6848605575
 S          2.8096706318        2.4334644977        0.6247910659
 O          3.5363686187        3.6846936433        0.5541071324
 O          2.9432854210        1.6983660014        1.8607334886
 C          1.0996362483        2.7724993196        0.2738521330
 C          0.2086742518        2.8604513276        1.3247342092
 C         -1.0994618318        3.2362755810        1.0656227085
 C         -1.4923540040        3.5132110916       -0.2347874447
 C         -0.5896554102        3.4048236996       -1.2811619048
 C          0.7222295384        3.0378401225       -1.0272660359
 H          1.4512080990        2.9508453933       -1.8157252552
 H         -0.9017380667        3.6114451627       -2.2925673579
 H         -2.5089612292        3.8137276582       -0.4322675004
 H         -1.8040061200        3.3140081035        1.8782505086
 H          0.5540878460        2.6287921579        2.3200583032
 H          4.2163602850        1.9383209929       -1.0615704920
 H          5.1190424878       -0.1112606221       -1.7536549330
 H          4.9242234746       -2.5707929101       -1.7837875737
 H          2.9999759729       -3.6757271600       -0.7445357746
 H          0.9177159250       -2.2633610943        1.6027056729
 C          0.7769569394       -3.9803416892        0.3352657242
 C          1.5247200456       -4.9040156699        1.2487316974
 C          0.0333936878       -4.7981371612        1.3467349734
 H         -0.5680996626       -5.6250597722        0.9997451170
 H         -0.3915613093       -4.2730099900        2.1895172511
 H          1.9465220749       -5.8084413384        0.8367964138
 H          2.1168969952       -4.4580118533        2.0334890724
 H          0.6717858284       -4.2620234685       -0.7073045846
