  62
        -98.94267206
 C          2.5735403798        1.2220223794        0.1925078599
 C          2.7536281995        0.2895396893       -0.8577019400
 C          3.9034163893       -0.6189726910       -0.7229653501
 C          4.7092402995       -0.5201790510        0.3491186198
 C          5.8882980193       -1.4058361713        0.6268259597
 C          5.4866053892       -2.6227543611        1.4715693498
 C          4.2578750990       -3.3623741309        0.9426281800
 H          4.0883805989       -4.2205268708        1.5964843301
 H          3.3842371391       -2.7125392507        1.0326799501
 C          4.3831292787       -3.8434740210       -0.5097200199
 H          4.0149758885       -4.8697095910       -0.5716118398
 H          5.4323924886       -3.8577619713       -0.8066954501
 C          3.5818873587       -3.0220962110       -1.5217022399
 H          2.5487383288       -2.9247288207       -1.1780054498
 H          3.5614729885       -3.5728733510       -2.4660271599
 C          4.1246643290       -1.6192698911       -1.8231675901
 H          5.1842916489       -1.6820578313       -2.0789232302
 H          3.5847377489       -1.2337696910       -2.6930604600
 H          6.3354416791       -3.3075226913        1.5149208198
 H          5.2709437794       -2.2833629110        2.4872298598
 H          6.3207696392       -1.7321032014       -0.3170302104
 H          6.6316005695       -0.8240274014        1.1744857195
 O          4.5096597298        0.3880807191        1.3365354197
 C          3.4468824100        1.2704220193        1.2857996998
 O          3.3873005603        2.0500313494        2.2571810397
 H         -0.0091317705        0.3861776598       -1.0833510797
 C         -0.5030063803        0.7361924700       -0.1885778897
 C          0.1279913700        1.6803614399        0.6090700702
 C         -0.5164567898        2.1113114802        1.7628595402
 C         -1.7609818098        1.6116019304        2.1041198904
 C         -2.3875226601        0.6735252505        1.3033765906
 C         -1.7497779904        0.2320122103        0.1515769005
 N         -2.3773896507       -0.7323734497       -0.6631538293
 S         -3.8731027107       -0.3098938394       -1.3066864091
 O         -4.0357879710       -1.1415189494       -2.4791494791
 O         -3.9750314204        1.1170966306       -1.5122024492
 C         -5.0392645806       -0.8268323991       -0.0642552089
 C         -5.0625262309       -2.1602047790        0.2953979512
 C         -5.9718634508       -2.5783942388        1.2537949913
 C         -6.8394175106       -1.6624154485        1.8304347313
 C         -6.8057671903       -0.3278914086        1.4558161812
 C         -5.8977638304        0.0972670812        0.4984688911
 H         -5.8306154302        1.1250103611        0.1793618210
 H         -7.4811789701        0.3824964116        1.9048451613
 H         -7.5462777105       -1.9908844183        2.5759658815
 H         -6.0014813310       -3.6152929187        1.5476059914
 H         -4.3747196511       -2.8391337392       -0.1805253189
 H         -1.7742434509       -1.0705077298       -1.4006328994
 H         -3.3567457202        0.2806873807        1.5641759607
 H         -2.2488582397        1.9564991906        3.0029462005
 H         -0.0299915996        2.8387724201        2.3965801501
 C          1.4637576600        2.2625164696        0.2111438500
 H          1.7552720003        2.9829682296        0.9869722099
 C          1.3402781600        3.0078849595       -1.1054168601
 C          0.6912291103        4.3575537197       -1.1167963101
 C          2.1687679703        4.2336891094       -1.3365790003
 H          2.5622552802        4.4101764992       -2.3264073103
 H          2.8304677804        4.5461813893       -0.5416073004
 H          0.3513384605        4.7567165198       -0.1730914701
 H          0.0639135603        4.6196627797       -1.9550960600
 H          1.1662744998        2.3594320695       -1.9541337000
 O          2.0097935993        0.1993487393       -1.8727227199
