  62
        -98.94063837
 C         -1.5912774136       -0.5478607466        0.7836064593
 C         -2.9489850920       -0.6680224804        1.1802975706
 C         -3.9390258477       -0.7357819890        0.1004638001
 C         -3.5330968771       -0.6706522332       -1.1800428185
 C         -4.4175303544       -0.7451673460       -2.3949983604
 C         -5.0520640793        0.5961352168       -2.7871642006
 C         -6.1692271416        1.0824742627       -1.8629811953
 H         -6.6665634606        1.9111391141       -2.3710153427
 H         -6.9062213383        0.2886844510       -1.7369845684
 C         -5.6884716021        1.5648582980       -0.4871429395
 H         -4.6131629992        1.7558892540       -0.5236222442
 H         -6.1724473500        2.5136971513       -0.2446063296
 C         -5.9825335753        0.5998659550        0.6615883650
 H         -7.0627273071        0.5055604401        0.7930474189
 H         -5.5673398922        1.0235322485        1.5795845510
 C         -5.3884487627       -0.8025848666        0.4766418340
 H         -5.4618015883       -1.3336095626        1.4288712987
 H         -5.9518286883       -1.3535572386       -0.2761340667
 H         -5.4656764310        0.4795495364       -3.7916306126
 H         -4.2652631487        1.3527005224       -2.8384125428
 H         -5.2008439086       -1.4863786562       -2.2336061562
 H         -3.7850875205       -1.0801253811       -3.2200622937
 O         -2.2253165199       -0.5429276880       -1.5229773570
 C         -1.2237556656       -0.4529364246       -0.5600684486
 O         -0.0856584102       -0.3083289271       -1.0402726414
 O         -3.3169798932       -0.7167203469        2.3840024374
 C         -0.5541933237       -0.4384790983        1.8879270146
 C          0.2808835315        0.8015590955        1.6964768837
 C         -0.2839237823        2.0353422229        2.0096130650
 C          0.4404401280        3.2026727594        1.8690632383
 C          1.7429472754        3.1599783060        1.4043928158
 C          2.3120692777        1.9372984997        1.0724698868
 C          1.5845446768        0.7640106370        1.2244988737
 H          2.0343872551       -0.1777653633        0.9565359213
 N          3.6423648467        1.8679268896        0.6092549813
 S          3.8961084307        1.3050349925       -0.9586663113
 O          5.1966738170        1.8394870352       -1.3144088559
 O          2.8086067278        1.6742035986       -1.8336945284
 C          4.0434472234       -0.4595551239       -0.8013049561
 C          3.0686816048       -1.2865830667       -1.3206711170
 C          3.2453205790       -2.6591648080       -1.2261653649
 C          4.3766090190       -3.1737196760       -0.6119733797
 C          5.3402128065       -2.3258417490       -0.0858062079
 C          5.1771188282       -0.9541263433       -0.1852601668
 H          5.9083291234       -0.2581296504        0.1908170848
 H          6.2164994992       -2.7301173170        0.3948129689
 H          4.5057164367       -4.2426154065       -0.5425991275
 H          2.4930422209       -3.3183036688       -1.6299551660
 H          2.1863649120       -0.8488560415       -1.7607521288
 H          4.1447856993        2.7390118217        0.7189555234
 H          2.3159880585        4.0686802860        1.2915312627
 H         -0.0093848831        4.1514319198        2.1207270794
 H         -1.3040067443        2.0656325145        2.3681958627
 H         -1.1564208448       -0.2922379183        2.8002262033
 C          0.2759944234       -1.6899184462        2.1256407888
 C         -0.3678705384       -3.0428348323        2.0693368636
 C          0.6542003769       -2.6548737329        1.0453912294
 H          1.6313263605       -3.1122947290        1.0967241229
 H          0.3253260861       -2.4435845655        0.0409519675
 H         -0.1004311501       -3.7745152485        2.8164989593
 H         -1.4039045252       -3.0848560565        1.7654407738
 H          1.0073614128       -1.5367083417        2.9135261400
