  62
        -98.93585277
 C          2.3201615828        0.0279084206       -0.2958526098
 C          3.3554980485       -0.7895760805        0.2226938428
 C          4.5900356918       -0.0861490729        0.6130902371
 C          4.6573709200        1.2520957169        0.5056144621
 C          5.8647767028        2.0825852629        0.8294227111
 C          6.7529563127        2.2779379778       -0.4072116711
 C          7.0637343196        0.9810425940       -1.1544688405
 H          6.1393700797        0.5875160643       -1.5837765762
 H          7.7216858842        1.2356715421       -1.9882274136
 C          7.7249183258       -0.1046022021       -0.2938301571
 H          8.1447534208        0.3424847757        0.6079019199
 H          8.5536770102       -0.5399932280       -0.8561165731
 C          6.7977262264       -1.2571322033        0.0966884437
 H          6.3028067595       -1.6476211169       -0.7961284447
 H          7.4120072538       -2.0623142478        0.5083722739
 C          5.7213693624       -0.9254504673        1.1379264863
 H          5.2693924902       -1.8681522854        1.4598295526
 H          6.1828957803       -0.4508629613        2.0060649978
 H          7.6847588771        2.7509437857       -0.0919778779
 H          6.2432014680        2.9559164605       -1.0957321292
 H          5.5252714775        3.0585747439        1.1802092772
 H          6.4301722080        1.5981355081        1.6230346447
 O          3.6296738094        2.0073640970        0.0382610249
 C          2.4514590632        1.4166645752       -0.3822080363
 O          1.6023629259        2.2242454966       -0.8128320833
 H         -1.5508606508        0.4002082545       -0.7508170468
 C         -1.2853496313       -0.0842563058        0.1773984913
 C         -0.0102593098       -0.6003951764        0.3511769464
 C          0.3129240008       -1.1944503519        1.5674158394
 C         -0.6278493461       -1.2749523364        2.5776547836
 C         -1.9075437766       -0.7823582852        2.3914106021
 C         -2.2369890173       -0.1787123767        1.1834634383
 N         -3.5190954845        0.3506698910        0.9696802838
 S         -4.1690487781        0.2509771965       -0.5861374780
 O         -3.9033409798       -1.0540711309       -1.1478026320
 O         -3.7128099063        1.3812291611       -1.3555368834
 C         -5.9050600661        0.4331467788       -0.2242470259
 C         -6.3959557447        1.7003139323        0.0294022870
 C         -7.7381297065        1.8482965695        0.3405077943
 C         -8.5623163645        0.7336460055        0.3925045354
 C         -8.0556651658       -0.5309360914        0.1334915850
 C         -6.7135252190       -0.6866346925       -0.1765173903
 H         -6.2769024586       -1.6485505375       -0.3921508983
 H         -8.6996226134       -1.3947235780        0.1713068005
 H         -9.6068565265        0.8521822126        0.6335753891
 H         -8.1359899200        2.8302317390        0.5397563870
 H         -5.7199334026        2.5372402557       -0.0328957651
 H         -4.1851315927        0.0717426234        1.6771182752
 H         -2.6434722778       -0.8564683618        3.1775984385
 H         -0.3655535371       -1.7389888222        3.5165728006
 H          1.3032529899       -1.6007741103        1.7060821417
 C          0.9867998870       -0.5206863486       -0.7758770643
 H          0.6068677708        0.2277307393       -1.4911374521
 C          1.1115063717       -1.8359014476       -1.5340453378
 C          0.6434976018       -3.1523627916       -0.9994636666
 C         -0.1143745807       -2.4860681736       -2.1057841225
 H         -0.0599418737       -2.9057463630       -3.0992188405
 H         -1.0734908141       -2.0469465958       -1.8678571535
 H          1.2405073284       -4.0223905805       -1.2261159601
 H          0.1964640784       -3.1758101484       -0.0184348739
 H          2.0040143677       -1.8606243065       -2.1515995049
 O          3.2755585682       -2.0358973087        0.3642414533
