  62
        -98.94618477
 C         -1.7698151868       -1.1607054089       -0.2932849427
 C         -3.1154259302       -1.3093093622        0.1218013783
 C         -4.0426472821       -0.2669102195       -0.3320856024
 C         -3.5931368539        0.7327717589       -1.1126365784
 C         -4.4203465843        1.8555861321       -1.6774315809
 C         -4.6154482639        3.0333750760       -0.7127397184
 C         -5.5683828346        2.7670776410        0.4531385384
 H         -6.5114581432        2.3776383504        0.0684244405
 H         -5.7806128318        3.7308992363        0.9201096717
 C         -5.0122580894        1.8137181746        1.5201117564
 H         -5.2006255939        2.2285929440        2.5128799632
 H         -3.9285912740        1.7333362338        1.4074340622
 C         -5.6180072918        0.4102710766        1.4941287306
 H         -6.6817732468        0.4655764763        1.7356119046
 H         -5.1289517810       -0.1888036544        2.2665871271
 C         -5.4590864552       -0.3226135008        0.1552371228
 H         -6.1347144983        0.1004449809       -0.5878097479
 H         -5.7180725889       -1.3734481104        0.3062549139
 H         -5.0119380853        3.8685734669       -1.2946296665
 H         -3.6391854236        3.3322475754       -0.3243938603
 H         -5.3928539122        1.4737558553       -1.9892062274
 H         -3.8898706312        2.2178339857       -2.5606953163
 O         -2.2950288013        0.8297137928       -1.5044567064
 C         -1.3492686111       -0.0968897160       -1.0898634529
 O         -0.1954386848        0.1362061505       -1.4961838078
 O         -3.5196055617       -2.2640347219        0.8377650287
 C         -0.7457339235       -2.1882933905        0.1550872116
 C          0.3151523315       -1.5141222222        0.9890298482
 C         -0.0784913290       -0.8404505191        2.1440314377
 C          0.8482313655       -0.2003613423        2.9424568767
 C          2.1899916018       -0.2099079844        2.6005041945
 C          2.5939230699       -0.8797606048        1.4532711404
 C          1.6607537108       -1.5351393640        0.6592496818
 H          2.0064239457       -2.0386329960       -0.2274475052
 N          3.9544849995       -0.9264992499        1.0897468527
 S          4.4184819903       -0.3121183193       -0.3990109372
 O          3.7846150124       -1.0537086954       -1.4562877265
 O          5.8652505111       -0.3469597224       -0.3722914138
 C          3.8677488788        1.3843293295       -0.3646517954
 C          2.5482839344        1.6801156280       -0.6411270520
 C          2.1271854307        2.9969923909       -0.5290947926
 C          3.0196289493        3.9853946521       -0.1451940533
 C          4.3421952250        3.6692810517        0.1281413010
 C          4.7705092883        2.3564454589        0.0234125525
 H          5.7893429024        2.0645304191        0.2214148381
 H          5.0363603979        4.4394286503        0.4238020495
 H          2.6819438360        5.0064321287       -0.0605950149
 H          1.0968275891        3.2324603448       -0.7450948339
 H          1.8644903794        0.9022739791       -0.9437183717
 H          4.5729804552       -0.5596522198        1.8004329177
 H          2.9180823144        0.2927092861        3.2191884587
 H          0.5260345663        0.3145654419        3.8348097488
 H         -1.1279249924       -0.8297858506        2.4057373071
 H         -1.2982037452       -2.8845044826        0.8035025011
 C         -0.1991693964       -2.9590480020       -1.0269572598
 C          0.3574988593       -4.3358875840       -0.8271980343
 C         -0.9535133518       -4.1518418684       -1.5293660784
 H         -0.9984501443       -4.3222650153       -2.5946187380
 H         -1.8577897461       -4.4244876725       -1.0048633076
 H          1.2173830047       -4.6314612423       -1.4094253835
 H          0.3442705081       -4.7392336903        0.1741275071
 H          0.2747836656       -2.3224507865       -1.7662677813
