  62
        -98.94531623
 C         -2.4318383253       -1.1729381848       -0.0586033135
 C         -3.1688302497       -0.3558429562        0.8304945545
 C         -3.7244867064        0.8786656331        0.2616439328
 C         -3.4987455837        1.1644834493       -1.0339429093
 C         -3.9425363856        2.4214951652       -1.7233930644
 C         -2.8594589230        3.5065743923       -1.6415211646
 C         -2.3092766256        3.7261436005       -0.2319553536
 H         -1.7638361632        2.8313314519        0.0801642351
 H         -1.5762182970        4.5340947892       -0.2906449401
 C         -3.3735914813        4.0718294722        0.8194327565
 H         -3.0058007157        4.9004633843        1.4281685013
 H         -4.2842095817        4.4112547959        0.3247595367
 C         -3.7137871610        2.9300793700        1.7791145324
 H         -4.3028862870        3.3424484488        2.6024859169
 H         -2.7920041251        2.5268475454        2.2070749153
 C         -4.5161917274        1.7689104811        1.1781851138
 H         -4.8459032184        1.1317341800        2.0040437960
 H         -5.3999746588        2.1577862741        0.6690761620
 H         -2.0271429528        3.2170652581       -2.2878658133
 H         -3.2763821530        4.4414645808       -2.0204082185
 H         -4.1323334359        2.1900002112       -2.7726921861
 H         -4.8636916160        2.7769062867       -1.2658266320
 O         -2.7868804152        0.3551841951       -1.8585572799
 C         -2.2170555039       -0.8206466610       -1.3916955623
 O         -1.5674840364       -1.4506960086       -2.2464431818
 H         -0.3561097479       -0.4208179908        1.4095380991
 C          0.2852166821       -1.1483051183        0.9251821287
 C         -0.2851852691       -2.2942792120        0.3825552583
 C          0.5485680593       -3.2175212038       -0.2327291501
 C          1.9110223049       -2.9838528689       -0.3164653414
 C          2.4699302920       -1.8340655990        0.2102039993
 C          1.6455053219       -0.9082663963        0.8366717847
 N          2.2083714891        0.2752461507        1.3677113376
 S          2.8017466490        1.3518902414        0.2130462285
 O          2.8015898454        2.6449795926        0.8630712223
 O          2.0634649349        1.2567659751       -1.0264310143
 C          4.4814508610        0.8159602398       -0.0259531501
 C          5.3514962751        0.9051693915        1.0432718655
 C          6.6602397479        0.4813183010        0.8769756017
 C          7.0738802316       -0.0198823638       -0.3485495667
 C          6.1885967663       -0.0993334067       -1.4128856022
 C          4.8774434964        0.3219543404       -1.2531493377
 H          4.1506194978        0.2732738344       -2.0484444094
 H          6.5117191007       -0.4889575128       -2.3648271378
 H          8.0926108991       -0.3504526863       -0.4756240735
 H          7.3519472861        0.5421225697        1.7016072781
 H          4.9883888951        1.3058973615        1.9748164721
 H          1.5668674535        0.7719302386        1.9713617686
 H          3.5292477946       -1.6475095155        0.1419743082
 H          2.5461018912       -3.7073182094       -0.8043011462
 H          0.1303088346       -4.1139192143       -0.6597723383
 C         -1.7845113936       -2.4398470856        0.4743629381
 H         -2.0603491447       -2.4828462160        1.5386242031
 C         -2.3281971129       -3.6682776526       -0.2213388957
 C         -2.3047868449       -4.9958894794        0.4738658118
 C         -3.6041328636       -4.2767721929        0.2754700138
 H         -4.3056300493       -4.6639798427       -0.4480589775
 H         -4.0724921736       -3.8164395879        1.1332647954
 H         -2.1161655145       -5.8817718159       -0.1132206018
 H         -1.8921822231       -5.0300827583        1.4707194516
 H         -2.1694665460       -3.6451264491       -1.2932908467
 O         -3.3444627208       -0.6402344309        2.0471263805
