  62
        -98.94449449
 C         -2.6549739117       -1.2761310242        0.1162481667
 C         -2.5629240218       -0.2880212331       -0.8939405828
 C         -3.4980411481        0.8410739189       -0.7737823390
 C         -4.3743408462        0.8719242700        0.2461708255
 C         -5.3402734270        1.9876709322        0.5176091728
 C         -4.7270339626        3.0354719158        1.4570476608
 C         -3.3304439549        3.4980836407        1.0408390660
 H         -3.0125355946        4.2590385620        1.7569024969
 H         -2.6317791355        2.6626706084        1.1322018666
 C         -3.2483508919        4.0705297536       -0.3811026281
 H         -2.6516642866        4.9847797365       -0.3561822937
 H         -4.2453928386        4.3426597964       -0.7296811364
 C         -2.5910715812        3.1409626465       -1.4033375501
 H         -1.6276165998        2.7938454871       -1.0185089848
 H         -2.3881817675        3.7207169766       -2.3081780505
 C         -3.4173649841        1.9171933357       -1.8196132978
 H         -4.4163751368        2.2350188463       -2.1250140495
 H         -2.9223585943        1.4617208547       -2.6824209033
 H         -5.3980230457        3.8951798102        1.5002327426
 H         -4.6594252597        2.6053517823        2.4588436376
 H         -5.6260863333        2.4515509203       -0.4242853646
 H         -6.2288588516        1.5654124078        0.9896938692
 O         -4.4456968768       -0.1035024870        1.1867606018
 C         -3.5806853419       -1.1827152958        1.1594261356
 O         -3.7357982871       -1.9867710372        2.0997551568
 O         -1.7532649516       -0.3341478328       -1.8583276682
 C         -1.7164218396       -2.4737444088        0.1526305619
 C         -0.3408388447       -1.9681858703        0.5138638363
 C         -0.0042951828       -1.8036222113        1.8546139413
 C          1.2178424289       -1.2672065152        2.2144296893
 C          2.1246257970       -0.8715236705        1.2461028289
 C          1.7905340119       -1.0154394881       -0.0931676614
 C          0.5736474395       -1.5794727008       -0.4525819268
 H          0.3205097448       -1.6707144373       -1.4968744610
 N          2.6964931672       -0.5939870248       -1.0833996661
 S          3.3206710256        0.9604041013       -0.9460557776
 O          2.4286617218        1.8351145383       -0.2204337651
 O          3.6585120342        1.3570753027       -2.2958175064
 C          4.8275899553        0.7232923625       -0.0253432660
 C          5.7521894261       -0.1799793231       -0.5122429543
 C          6.9329409242       -0.3720092014        0.1869695524
 C          7.1699920845        0.3408722931        1.3529461301
 C          6.2338960755        1.2472025965        1.8265511301
 C          5.0499547408        1.4428702020        1.1322336224
 H          4.2908166150        2.1327975285        1.4654373473
 H          6.4196812742        1.8013266628        2.7326373598
 H          8.0897386810        0.1896771714        1.8956243194
 H          7.6634499206       -1.0756706757       -0.1784335800
 H          5.5311699123       -0.7099674481       -1.4235289607
 H          2.3558569118       -0.7494881278       -2.0220162095
 H          3.0738016195       -0.4395770376        1.5185313909
 H          1.4662795084       -1.1501943135        3.2584000114
 H         -0.7236329442       -2.0865208806        2.6107581800
 H         -2.0722134721       -3.1072643212        0.9756281440
 C         -1.7581692350       -3.2775978269       -1.1300347253
 C         -1.1713300207       -4.6561614288       -1.1455317296
 C         -2.6570115010       -4.4730023400       -1.2130484581
 H         -3.1609997468       -4.6734273887       -2.1466875858
 H         -3.2436094344       -4.7187466931       -0.3398150800
 H         -0.6531421800       -4.9867256806       -2.0326313587
 H         -0.7480897268       -5.0263040934       -0.2240611180
 H         -1.6603459810       -2.6739802142       -2.0232182491
