  62
        -98.94461825
 C         -1.8778892274       -1.4426668083       -0.0548963324
 C         -2.7262979884       -0.7604899551        0.8592551063
 C         -3.5731603415        0.2979628702        0.3007191114
 C         -3.5398523794        0.5475349883       -1.0205661033
 C         -4.3757915850        1.5605956662       -1.7548708257
 C         -3.8012790175        2.9836519876       -1.7332099531
 C         -3.8969393040        3.7007558288       -0.3859685322
 H         -3.6559548745        4.7507273725       -0.5636958896
 H         -4.9258750860        3.6597961884       -0.0274214762
 C         -2.9508846364        3.1497872357        0.6901877757
 H         -2.4430377044        3.9789594743        1.1874882372
 H         -2.1827586436        2.5348310046        0.2155389708
 C         -3.6362206018        2.3202757249        1.7758413558
 H         -2.8691423162        1.9558050938        2.4636619030
 H         -4.3245802699        2.9520334556        2.3412201272
 C         -4.4107166142        1.1065955320        1.2448128025
 H         -4.6699744769        0.4663569400        2.0913427080
 H         -5.3298832541        1.4300923512        0.7565583260
 H         -2.7575879376        2.9442317206       -2.0540908054
 H         -4.3527672887        3.5686060048       -2.4729181201
 H         -5.3850877873        1.5687372667       -1.3421580572
 H         -4.4280585537        1.2261859759       -2.7933711043
 O         -2.7280814280       -0.1361503297       -1.8673005250
 C         -1.8635493961       -1.1226586661       -1.4123272509
 O         -1.1623853270       -1.6134489718       -2.3216383935
 O         -2.7796878949       -1.0350572502        2.0866925655
 C         -1.0069817576       -2.5448089780        0.5264188324
 C          0.4139039299       -2.0828798292        0.7475681468
 C          0.9562574534       -2.0293837536        2.0263482367
 C          2.2621038351       -1.6139012865        2.2226430771
 C          3.0493669675       -1.2339592498        1.1507489542
 C          2.5088805203       -1.2653062381       -0.1288076450
 C          1.2042163110       -1.6941912643       -0.3248446657
 H          0.7901303916       -1.7132986407       -1.3219355710
 N          3.2856398333       -0.8475193034       -1.2229733651
 S          4.1809985448        0.5534212488       -1.0449930386
 O          4.2744202644        1.1234832600       -2.3706654009
 O          5.4374105204        0.2415981941       -0.4091088158
 C          3.2219557052        1.6134698637        0.0252071953
 C          1.9307620031        1.9307714256       -0.3476478942
 C          1.1749264309        2.7421839114        0.4824721460
 C          1.7182095002        3.2198447988        1.6652941959
 C          3.0176862995        2.8968896115        2.0228148493
 C          3.7784857225        2.0852269253        1.1967029635
 H          4.7913336014        1.8055785486        1.4371108332
 H          3.4382685954        3.2713141515        2.9420435855
 H          1.1222229229        3.8468405030        2.3093396934
 H          0.1634284032        2.9952126437        0.2065666344
 H          1.5312109200        1.5445740636       -1.2726957557
 H          2.7857360736       -0.8593415537       -2.1001003108
 H          4.0709808539       -0.9162565597        1.2829518235
 H          2.6718555991       -1.5843962446        3.2204710650
 H          0.3429253603       -2.3075379174        2.8707064171
 H         -1.4435876081       -2.7585268671        1.5111970592
 C         -1.0319140019       -3.8206191877       -0.2933930009
 C         -0.6726059499       -5.1158615656        0.3680438217
 C         -2.0927915411       -4.8436747574       -0.0260146030
 H         -2.5113477148       -5.3820409906       -0.8631405803
 H         -2.8072609382       -4.6303016649        0.7557220028
 H         -0.1118321239       -5.8441751964       -0.1973558611
 H         -0.4247392390       -5.0891893170        1.4182744928
 H         -0.7277567735       -3.6792898300       -1.3224049662
