  62
        -98.93398234
 C          0.8398914098        1.8488130502       -0.2062352167
 C          1.2268026359        0.5382066240       -0.5795596365
 C          2.4904146143        0.0554132050        0.0056304033
 C          3.1469581295        0.8060763265        0.9063734573
 C          4.3948663859        0.4277836915        1.6600233974
 C          5.6760390551        0.2560837030        0.8211918145
 C          5.9497651459       -1.1847803853        0.3728052453
 H          7.0213465095       -1.3789095550        0.4526243389
 H          5.4552334418       -1.8670968066        1.0648903484
 C          5.5395844922       -1.5254605417       -1.0629463420
 H          6.2850773519       -1.1215801014       -1.7519035026
 H          5.5527069116       -2.6124807091       -1.1662037655
 C          4.1739170270       -1.0014660130       -1.5073426672
 H          3.9247489167       -1.4676372229       -2.4627070294
 H          4.2376866248        0.0728115678       -1.6968830126
 C          3.0317623467       -1.2485769332       -0.5024698200
 H          2.2011749254       -1.7536840597       -0.9973528167
 H          3.3732801141       -1.8701846949        0.3232463840
 H          5.6403714696        0.9241647334       -0.0389937774
 H          6.5086835795        0.5813470498        1.4471135670
 H          4.5495443909        1.2303340061        2.3840847334
 H          4.2018419613       -0.4919172679        2.2165940816
 O          2.7033491070        2.0356869119        1.2890168262
 C          1.5732227256        2.5945696236        0.7213498628
 O          1.3205350419        3.7499280753        1.1198178126
 H         -1.3634713034        0.1146589603       -0.0411990817
 C         -1.9566751856        0.9227859322        0.3581864869
 C         -1.6032594180        2.2369413509        0.0831794633
 C         -2.3737727514        3.2642122753        0.6159326755
 C         -3.4759637598        2.9827113693        1.4028117714
 C         -3.8402415829        1.6725455545        1.6542376407
 C         -3.0760457578        0.6381534623        1.1263818000
 N         -3.4119900932       -0.7024312787        1.3683444812
 S         -3.3312350726       -1.7937710938        0.0971724700
 O         -3.5922717485       -1.1469018535       -1.1668019029
 O         -4.2635604342       -2.8410614626        0.4672781598
 C         -1.6937483556       -2.4822329994        0.1541114895
 C         -1.1140484826       -2.9142305652       -1.0207229012
 C          0.1119489773       -3.5562606956       -0.9648087155
 C          0.7351896990       -3.7491435434        0.2578684348
 C          0.1450790357       -3.2964878418        1.4274840191
 C         -1.0857813555       -2.6626850458        1.3798817698
 H         -1.5749615394       -2.3011142746        2.2694553602
 H          0.6383430441       -3.4371156114        2.3760799576
 H          1.6901815275       -4.2493466031        0.2976052487
 H          0.5775880258       -3.8976134905       -1.8757127240
 H         -1.6241089471       -2.7292232737       -1.9523210794
 H         -4.2526659260       -0.8373989167        1.9117616967
 H         -4.7068450690        1.4482291433        2.2577981446
 H         -4.0622944192        3.7893800041        1.8159807745
 H         -2.0926949835        4.2889286842        0.4213601259
 C         -0.3932358723        2.5454325181       -0.7590106309
 H         -0.1856721127        3.6223255782       -0.6495066984
 C         -0.6127388392        2.2876398932       -2.2431101187
 C         -1.6845112098        1.4069061465       -2.8033225515
 C         -1.7956012427        2.8943000619       -2.9392901174
 H         -1.6546348420        3.3405209491       -3.9122934485
 H         -2.5276735765        3.3966204374       -2.3244061275
 H         -1.4356938371        0.8256269893       -3.6787980955
 H         -2.3543287377        0.8916315718       -2.1323476653
 H          0.3257288223        2.2959769376       -2.7896243293
 O          0.5727527048       -0.2077994460       -1.3511830066
