  62
        -98.94453752
 C         -1.6058309578       -1.6497018830       -0.6398203788
 C         -1.5075866712       -0.4185720994       -1.3333874923
 C         -2.6183154416        0.5263082676       -1.1281068635
 C         -3.6293767933        0.1990356130       -0.3059005118
 C         -4.7959432393        1.0843527813        0.0224084849
 C         -4.5243354049        1.9373357986        1.2686414728
 C         -3.1870422619        2.6783028216        1.2392174806
 H         -2.3656531114        1.9593524807        1.2954260950
 H         -3.1335791974        3.2872182460        2.1450107881
 C         -2.9802319345        3.5743424182        0.0103278451
 H         -2.5632097527        4.5275566992        0.3423702799
 H         -3.9398021684        3.7855091034       -0.4645580599
 C         -2.0090568158        3.0002110322       -1.0228594887
 H         -1.1012049671        2.6713583448       -0.5103820381
 H         -1.7293339600        3.8016284314       -1.7125779222
 C         -2.5480583246        1.8351431944       -1.8633504836
 H         -1.8557970457        1.6758446955       -2.6954660951
 H         -3.5248924299        2.0990462925       -2.2750994525
 H         -4.5332615554        1.2846649523        2.1448502423
 H         -5.3371308935        2.6588898485        1.3743577919
 H         -5.0069406164        1.7272652872       -0.8301377719
 H         -5.6640067661        0.4498510167        0.2111984909
 O         -3.6874808194       -0.9875304651        0.3527955551
 C         -2.6772735140       -1.9235306193        0.2144404246
 O         -2.8498445085       -2.9626688972        0.8846865484
 H          0.6694049164       -0.4868252369        0.1194871311
 C          0.9400609042       -1.3229336321        0.7401741326
 C          0.4071575632       -2.5739970487        0.4637318446
 C          0.7458481119       -3.6432503229        1.2830256076
 C          1.5873806266       -3.4532330302        2.3655450724
 C          2.0972368502       -2.2004690201        2.6521351867
 C          1.7670127287       -1.1224822287        1.8345974967
 N          2.2800721776        0.1467297225        2.1013830327
 S          1.7860898038        1.5754542718        1.3951078046
 O          2.2818273044        2.5894929174        2.3028689449
 O          0.3669571522        1.5944133537        1.1404998503
 C          2.7449775557        1.6375570189       -0.1044146701
 C          2.1858119270        1.3779033406       -1.3380039372
 C          3.0017284025        1.4136545301       -2.4597170235
 C          4.3496918809        1.7056752357       -2.3328370726
 C          4.8957722068        1.9689346314       -1.0848382645
 C          4.0883081959        1.9341156392        0.0386783193
 H          4.4670394926        2.1449232326        1.0251918801
 H          5.9444782280        2.1989716702       -0.9863502526
 H          4.9768242828        1.7297138976       -3.2101714480
 H          2.5682733619        1.2061328291       -3.4249525360
 H          1.1370932495        1.1399403098       -1.4297878083
 H          2.7584098110        0.2677653114        2.9791240581
 H          2.7385761215       -2.0506645319        3.5070959884
 H          1.8397782359       -4.2882346632        3.0015517322
 H          0.3263085723       -4.6184252352        1.0838682606
 C         -0.5445241447       -2.7393510411       -0.6944655055
 H         -1.0883117386       -3.6855770372       -0.5387185102
 C          0.1651716828       -2.8418793773       -2.0363061750
 C          1.5671985916       -2.3733966294       -2.2680815588
 C          1.2696988905       -3.8403133518       -2.2217828651
 H          1.3045422985       -4.4072451769       -3.1396751657
 H          1.5951801116       -4.3878740767       -1.3500845123
 H          2.1031063276       -1.9319104427       -1.4421665864
 H          1.7866364282       -1.9148559860       -3.2197022263
 H         -0.5241207288       -2.7193123875       -2.8650819132
 O         -0.5615724244       -0.1045000678       -2.0996468762
