  62
        -98.94487481
 C         -1.9166959962       -0.1525291345        0.0492522206
 C         -2.9249969556       -1.0466530254        0.4822987591
 C         -4.2419086087       -0.4521552107        0.7443964144
 C         -4.4071089788        0.8739546515        0.5863500412
 C         -5.7073350472        1.6016965054        0.7656732681
 C         -6.4832861329        1.6848718167       -0.5563212172
 C         -6.6075647004        0.3468300058       -1.2852117340
 H         -7.1989969098        0.5215204064       -2.1866557960
 H         -5.6154838483        0.0246684442       -1.6099801808
 C         -7.2569237496       -0.7699999980       -0.4559888725
 H         -7.9867197690       -1.2899990120       -1.0801281838
 H         -7.7999364414       -0.3384076531        0.3855863989
 C         -6.2788805279       -1.8269158867        0.0603018134
 H         -5.6672617249       -2.1948966375       -0.7673421619
 H         -6.8602232206       -2.6719606507        0.4385439127
 C         -5.3424217060       -1.3746709214        1.1878215940
 H         -5.9261128435       -0.9210579791        1.9913075104
 H         -4.8453242965       -2.2650609616        1.5837635830
 H         -7.4785570386        2.0817167851       -0.3480089193
 H         -5.9684850733        2.3873564416       -1.2159524009
 H         -6.3042979997        1.0895020450        1.5177504561
 H         -5.4901492595        2.6130421922        1.1134131749
 O         -3.4076959145        1.7051467269        0.1946141330
 C         -2.1411896632        1.2165468650       -0.0940946251
 O         -1.3264477385        2.0861276240       -0.4561353882
 H          1.7523520088        0.7086496533       -0.9628070504
 C          1.5929784520        0.6336067274        0.0992046394
 C          0.4933794496       -0.0376087711        0.6082806175
 C          0.3247043103       -0.0895959146        1.9906922077
 C          1.2218752423        0.5306811457        2.8366277042
 C          2.3161463733        1.2061270469        2.3235143755
 C          2.4982433853        1.2592442897        0.9478223951
 N          3.5921686207        1.9502444948        0.4012607951
 S          4.5090363031        1.2552263150       -0.8109259219
 O          5.7256763747        2.0366836829       -0.8381014816
 O          3.7616091334        1.1967213647       -2.0403073869
 C          4.8541073982       -0.3872349446       -0.2083992564
 C          4.0580090502       -1.4428413072       -0.6033018773
 C          4.2937859132       -2.6967161050       -0.0614029242
 C          5.3143535027       -2.8720998292        0.8600311969
 C          6.1092032791       -1.8018809914        1.2422879571
 C          5.8756860800       -0.5454221302        0.7081346836
 H          6.4758507345        0.3106368039        0.9708027024
 H          6.9056403677       -1.9428857880        1.9550765113
 H          5.4921444297       -3.8494544449        1.2801674456
 H          3.6778818621       -3.5303167944       -0.3592047980
 H          3.2771314248       -1.2691271385       -1.3247990625
 H          4.1862600676        2.3943109968        1.0861821036
 H          3.0149423941        1.6994366537        2.9819238748
 H          1.0722230049        0.4878405494        3.9048949690
 H         -0.5317257517       -0.6154760490        2.3902888046
 C         -0.5377798523       -0.7056164982       -0.2659091889
 H         -0.5846187886       -1.7700502932        0.0080977830
 C         -0.2525752633       -0.5980184169       -1.7483984650
 C          0.6497820624       -1.5905210108       -2.4160837862
 C         -0.8258349471       -1.6258530471       -2.6757549505
 H         -1.1914352548       -1.3038448397       -3.6393475940
 H         -1.4028149698       -2.4252808606       -2.2340222758
 H          1.0654743780       -2.3756029754       -1.8023552367
 H          1.3051516848       -1.2439221550       -3.2017404715
 H         -0.2324540689        0.4278636703       -2.1000231651
 O         -2.7305960408       -2.2811956263        0.6457098213
