  62
        -98.94026217
 C         -2.0090881507       -0.1058715902       -0.4912085594
 C         -2.8080973807        0.5453957996        0.4813778907
 C         -4.1328266107       -0.0495385604        0.7161571106
 C         -4.4988285507       -1.1666837203        0.0642904604
 C         -5.8029812706       -1.9002171003        0.2221460003
 C         -6.9485936107       -1.3243672302       -0.6216290196
 C         -7.5115183807        0.0102202797       -0.1308564794
 H         -8.4406428107        0.1856828798       -0.6768570694
 H         -7.7661991807       -0.0712798404        0.9263217706
 C         -6.5782659407        1.2096997298       -0.3469972392
 H         -5.8117187607        0.9466337599       -1.0796522993
 H         -7.1476528407        2.0429579098       -0.7650511191
 C         -5.8959011407        1.7185319196        0.9227622309
 H         -6.6487918107        2.1059993195        1.6126479609
 H         -5.2336626307        2.5437320696        0.6491084810
 C         -5.0588595407        0.6623518295        1.6559387907
 H         -4.4460850106        1.1699759893        2.4048101708
 H         -5.7104742006       -0.0500089406        2.1613745506
 H         -6.6033404307       -1.2175450200       -1.6526831596
 H         -7.7573869507       -2.0588071102       -0.6171121297
 H         -5.6217298606       -2.9283662403       -0.0988518099
 H         -6.0933870906       -1.9111311905        1.2731514903
 O         -3.6849568907       -1.7876237002       -0.8313618197
 C         -2.4411732407       -1.2655282501       -1.1407110596
 O         -1.8154862107       -1.9149268900       -2.0042082797
 O         -2.4564638107        1.5626159895        1.1297954108
 C         -0.6277169407        0.3829416199       -0.8956236094
 C          0.4258481393       -0.1992234103        0.0103165605
 C          0.3429853094       -0.0609273805        1.3924920306
 C          1.3221859094       -0.5931461006        2.2111165605
 C          2.4047108494       -1.2657761405        1.6710324004
 C          2.4984275094       -1.4049894803        0.2932497203
 C          1.5121848693       -0.8732639002       -0.5274537196
 H          1.5828087193       -0.9993290400       -1.5995459496
 N          3.6219924494       -2.0558523402       -0.2575963998
 S          5.1019189993       -1.3471053303        0.0992920103
 O          6.0064240793       -1.7977114801       -0.9337461897
 O          5.4690822694       -1.6701152805        1.4540481903
 C          4.7822117793        0.4004255298       -0.0544195494
 C          4.4978932193        1.1455356096        1.0720979207
 C          4.1413928993        2.4761768296        0.9213527109
 C          4.0749077993        3.0354674398       -0.3449368590
 C          4.3737566293        2.2762516500       -1.4661260091
 C          4.7240591193        0.9436578900       -1.3227394793
 H          4.9640014993        0.3206094901       -2.1697512294
 H          4.3255688893        2.7162113001       -2.4493900790
 H          3.7852444993        4.0676049598       -0.4599419788
 H          3.9094073893        3.0696513895        1.7909722210
 H          4.5634950094        0.6751041594        2.0391340006
 H          3.5449068093       -2.2101053701       -1.2530280698
 H          3.1817155994       -1.6797735206        2.2933098803
 H          1.2434108294       -0.4815852208        3.2819249205
 H         -0.4939622406        0.4744077694        1.8139496006
 H         -0.4637850907       -0.0324329400       -1.9024104794
 C         -0.5375781207        1.9000177799       -1.0093563391
 C          0.3503200393        2.7461313198       -0.1512449190
 C          0.6965013093        2.5246551400       -1.5905225890
 H          0.5846723993        3.3413662001       -2.2871024189
 H          1.5275336093        1.8689665900       -1.8045953892
 H         -0.0265246107        3.7105724697        0.1523115911
 H          0.9574540493        2.2601288696        0.5959852809
 H         -1.4856855207        2.3413186399       -1.2973734891
