  62
        -98.93897329
 C          2.3425671704        0.7656360302        0.6085909709
 C          3.4293792905        0.9833667611       -0.2737893787
 C          4.6675176805        0.2509227409        0.0360794208
 C          4.7095369304       -0.5654880301        1.1034959901
 C          5.8852337504       -1.4119966704        1.4949368395
 C          5.8075874006       -2.8043134398        0.8529614381
 C          5.5242557109       -2.7771442284       -0.6490207719
 H          5.5220453910       -3.8120773281       -0.9979609528
 H          4.5197630009       -2.3805894684       -0.8146756817
 C          6.5329453009       -1.9623946876       -1.4707105409
 H          7.4445357308       -1.8095620081       -0.8919390206
 H          6.8051371411       -2.5361354968       -2.3590706014
 C          6.0090540909       -0.6100089172       -1.9571062298
 H          5.0468492810       -0.7480617068       -2.4565176301
 H          6.7107847410       -0.2207350864       -2.6995466393
 C          5.8412349807        0.4670775818       -0.8780436188
 H          6.7643864806        0.5592752913       -0.3025972886
 H          5.6548647607        1.4182611623       -1.3848068179
 H          6.7502413706       -3.3224457599        1.0383579978
 H          5.0084373906       -3.3664721203        1.3417495275
 H          6.8028783404       -0.9114960601        1.1920446801
 H          5.8826762502       -1.5213948514        2.5807367894
 O          3.6498527003       -0.7473883810        1.9325271397
 C          2.4520142103       -0.0942637409        1.7066955601
 O          1.5680681001       -0.3514448017        2.5500317697
 H         -1.4140080396        0.2767737197        0.8357570798
 C         -1.1049824194        0.2384663107       -0.1990581702
 C          0.1219302306        0.7628895011       -0.5781596395
 C          0.5018010908        0.6811361024       -1.9139505295
 C         -0.3352277290        0.0912325732       -2.8430752502
 C         -1.5707133990       -0.4056227572       -2.4668481909
 C         -1.9563988592       -0.3342257985       -1.1335470908
 N         -3.1960558293       -0.8433200590       -0.7143538515
 S         -4.0159943795       -0.0206907102        0.5119043091
 O         -3.9086619996        1.4060639900        0.3063097604
 O         -3.5664461697       -0.5174306413        1.7883654087
 C         -5.6872808894       -0.5640230200        0.2092422283
 C         -6.5317605694        0.2324138606       -0.5410987811
 C         -7.8201079793       -0.2107524792       -0.7960440917
 C         -8.2387189493       -1.4369787397       -0.3017422529
 C         -7.3799790094       -2.2247433804        0.4506524765
 C         -6.0907936494       -1.7874074005        0.7101510471
 H         -5.3913978495       -2.3596299110        1.2973801767
 H         -7.7099260394       -3.1758377808        0.8363629155
 H         -9.2417680492       -1.7795711396       -0.5011226034
 H         -8.4911037092        0.4008145913       -1.3774214413
 H         -6.1654555194        1.1820845810       -0.8966320901
 H         -3.8064906691       -1.0784448483       -1.4850912119
 H         -2.2293299389       -0.8509284166       -3.1971581214
 H         -0.0284343788        0.0314368042       -3.8765068202
 H          1.4573415208        1.0835430927       -2.2126954790
 C          0.9901897304        1.4424371802        0.4542948213
 H          0.4898519902        1.3269258293        1.4261626511
 C          1.0884511303        2.9253795005        0.1448101227
 C         -0.1222270898        3.7822837202        0.3549605233
 C          1.0595450101        3.9153831395        1.2674827136
 H          1.6737524700        4.8000043896        1.1903128445
 H          0.9731841899        3.5293516185        2.2732155432
 H         -0.3188030197        4.5761396809       -0.3493491160
 H         -1.0146661498        3.3052064798        0.7349881527
 H          1.7231962904        3.1465868213       -0.7028238470
 O          3.3962558306        1.7453788320       -1.2762477480
