  62
        -98.93763432
 C         -1.6267572446       -0.4184638681        0.9973752624
 C         -2.8746255753       -1.0202885444        0.7017280586
 C         -4.0104131534       -0.0937611560        0.5526528392
 C         -3.8170182451        1.2284003193        0.7006745596
 C         -4.8725316170        2.2789781420        0.5147076318
 C         -4.8990771227        2.7881511291       -0.9332042965
 C         -4.9278848975        1.6733766315       -1.9788953248
 H         -4.9769520756        2.1495174365       -2.9606033711
 H         -3.9864345372        1.1206618139       -1.9369463825
 C         -6.0984967405        0.6918262375       -1.8280271426
 H         -6.8768559623        1.1358548141       -1.2063505473
 H         -6.5341757703        0.5124852981       -2.8132733609
 C         -5.7121497637       -0.6739627465       -1.2571899947
 H         -6.5579174040       -1.3525119968       -1.3974493309
 H         -4.8694764798       -1.0812925780       -1.8214800296
 C         -5.3496284903       -0.6967933468        0.2331705147
 H         -5.2885212191       -1.7441938753        0.5431493093
 H         -6.1390904411       -0.2128613026        0.8117517976
 H         -5.7735905810        3.4293757154       -1.0578384756
 H         -4.0059188066        3.3936262680       -1.1034692480
 H         -4.6473288196        3.1140479003        1.1801582966
 H         -5.8422648396        1.8646960875        0.7835244582
 O         -2.6062117910        1.7688686978        0.9922261109
 C         -1.4877420397        0.9660285462        1.1343434033
 O         -0.4393059718        1.5909495099        1.3896572811
 O         -3.0543175107       -2.2573009397        0.5647862317
 C         -0.3415195560       -1.2098020342        1.1750913050
 C          0.3439649560       -1.4025023230       -0.1528250956
 C         -0.3177840785       -1.9764996396       -1.2341525579
 C          0.3360281991       -2.1431052411       -2.4411053765
 C          1.6515610981       -1.7416078734       -2.5940213974
 C          2.3177582855       -1.1548620864       -1.5231154645
 C          1.6576640699       -0.9888230198       -0.3129119485
 H          2.1758676523       -0.5369500155        0.5175557849
 N          3.6315278841       -0.7103019937       -1.6688361379
 S          4.6279006545       -0.2628314753       -0.4166763179
 O          5.9204096401       -0.0991812477       -1.0455367320
 O          4.5717066943       -1.2056132834        0.6757387179
 C          4.0103476214        1.3269325505        0.0919462025
 C          3.8691961400        2.3064687631       -0.8706246623
 C          3.3900066053        3.5501129326       -0.4941373761
 C          3.0619885079        3.7922517455        0.8311472963
 C          3.2140041454        2.8002978927        1.7864365220
 C          3.6940174474        1.5547290030        1.4155576531
 H          3.8209324327        0.7551823693        2.1291013039
 H          2.9519453361        2.9885114087        2.8150892975
 H          2.6814396744        4.7584744424        1.1225045897
 H          3.2687523126        4.3255591838       -1.2335189234
 H          4.1363470243        2.0831377398       -1.8902872127
 H          4.1031083843       -0.9366923447       -2.5293150767
 H          2.1598809977       -1.8762403224       -3.5363604252
 H         -0.1830240122       -2.5951485868       -3.2730628347
 H         -1.3417863209       -2.2958434047       -1.1130331264
 H          0.3089548959       -0.5638451537        1.7864710164
 C         -0.5305807380       -2.5092202482        1.9463329179
 C         -0.3196210533       -3.8678400219        1.3560024664
 C          0.6740280134       -3.3171307082        2.3314470424
 H          0.7203473039       -3.7406668053        3.3235195670
 H          1.6311278919       -2.9957032489        1.9451791375
 H         -0.9807932900       -4.6582322930        1.6772673013
 H         -0.0286882984       -3.9395418141        0.3200760961
 H         -1.3171714588       -2.4289048543        2.6895040303
