  62
        -98.94191674
 C          1.2565167798        1.4001386105        0.7269333707
 C          1.8326511914        1.1405231952       -0.5412679382
 C          2.8013816493        0.0334075488       -0.5896986454
 C          3.0305842336       -0.6969350790        0.5157495258
 C          3.9816923621       -1.8550669525        0.5980544016
 C          3.2857860608       -3.1866936848        0.2876191953
 C          2.4413158854       -3.1620505109       -0.9859626502
 H          2.0290487938       -4.1634035771       -1.1221361092
 H          1.5974231397       -2.4833301093       -0.8419117604
 C          3.2090808212       -2.7553552705       -2.2511575932
 H          4.2817921752       -2.8658077266       -2.0877490535
 H          2.9333442459       -3.4339424046       -3.0608935401
 C          2.9156972139       -1.3366365223       -2.7417153324
 H          3.3232889977       -1.2344539735       -3.7510876303
 H          1.8351337862       -1.1861444555       -2.8086695801
 C          3.5078242869       -0.2032316684       -1.8950242788
 H          3.4028314432        0.7248295155       -2.4647462904
 H          4.5719900631       -0.3850486146       -1.7291431694
 H          4.0497291544       -3.9620522605        0.2060953450
 H          2.6338409591       -3.4358247044        1.1268938306
 H          4.3852635014       -1.8936829090        1.6114884769
 H          4.8003611952       -1.6896433492       -0.1000337100
 O          2.3866481679       -0.4769796707        1.6911753951
 C          1.4892734947        0.5695984844        1.8256465982
 O          0.9660582029        0.6506415902        2.9555795532
 O          1.5744570970        1.7981213385       -1.5814517263
 C          0.2688783037        2.5355800639        0.9329670616
 C         -0.7864196184        2.4925184650       -0.1446195414
 C         -1.0497541498        3.5320099266       -1.0254883547
 C         -2.0475414627        3.4013475402       -1.9761029893
 C         -2.8137725507        2.2528537418       -2.0509382771
 C         -2.5575795935        1.2057648131       -1.1720253392
 C         -1.5420081359        1.3304669077       -0.2403987871
 H         -1.3342319104        0.5137699011        0.4350031638
 N         -3.3049954837        0.0194294093       -1.2178132099
 S         -3.7053684128       -0.7803672253        0.1971223277
 O         -4.8993578123       -1.5263973806       -0.1405956217
 O         -3.8197962332        0.1320389913        1.3101889944
 C         -2.3791457099       -1.9387309695        0.4606179555
 C         -2.2209804705       -2.9559189323       -0.4607029966
 C         -1.2270108311       -3.8979501883       -0.2556710649
 C         -0.4089182246       -3.8069952001        0.8607335459
 C         -0.5725372385       -2.7751020064        1.7712199658
 C         -1.5705451908       -1.8333853603        1.5742921099
 H         -1.7244360311       -1.0224415121        2.2705073456
 H          0.0707087441       -2.6873586554        2.6331453438
 H          0.3589765611       -4.5464642387        1.0244329490
 H         -1.0923332453       -4.7001095947       -0.9630948567
 H         -2.8855941116       -2.9978271414       -1.3074884114
 H         -4.0682375878        0.0212218423       -1.8784506380
 H         -3.5990115120        2.1601295064       -2.7859356249
 H         -2.2373633217        4.2111106057       -2.6644520650
 H         -0.4606318101        4.4333346718       -0.9840656120
 H         -0.2342895286        2.3030872944        1.8871637595
 C          0.9056587540        3.9055716918        1.1097563674
 C          2.2817327784        4.0459840420        1.6880119796
 C          2.0324343307        4.3961807295        0.2532939648
 H          2.0427568531        5.4398932247       -0.0256644902
 H          2.4034425903        3.7354591413       -0.5131144400
 H          2.4638870820        4.8442427900        2.3918821494
 H          2.8256183915        3.1381487647        1.9066695092
 H          0.1770621795        4.6468223864        1.4250162825
