  62
        -98.94300632
 C         -0.9002103765       -1.7432377834        0.0654924124
 C         -1.7778906266       -1.1544463960        1.0077077564
 C         -3.0054157009       -0.5665676085        0.4583927060
 C         -3.2038086163       -0.5610881495       -0.8727176451
 C         -4.4336097751       -0.0644531296       -1.5848385921
 C         -4.4850589203        1.4541957400       -1.7974760811
 C         -4.7759189183        2.2765004800       -0.5419233495
 H         -5.0182766566        3.2887566796       -0.8710352930
 H         -5.6594148685        1.8773428830       -0.0428551857
 C         -3.6053393252        2.3470569596        0.4475752520
 H         -2.6834113912        2.0545231454       -0.0594589064
 H         -3.4798576961        3.3783198518        0.7827346893
 C         -3.7711331893        1.4866898674        1.6993578799
 H         -2.8612623096        1.5712580679        2.2989229926
 H         -4.6048478271        1.8620108056        2.2972658227
 C         -4.0102863573       -0.0007171378        1.4171634266
 H         -5.0199625447       -0.1517503229        1.0343316743
 H         -3.9093543908       -0.5475940465        2.3582429356
 H         -3.5389442233        1.7786267085       -2.2359119139
 H         -5.2749175750        1.6512561816       -2.5259795892
 H         -5.3216310114       -0.3845383738       -1.0378259832
 H         -4.4371543084       -0.5495603419       -2.5633532277
 O         -2.2948438816       -1.0651795592       -1.7498002871
 C         -1.1443386592       -1.7031676864       -1.3068517011
 O         -0.4415612988       -2.1806380966       -2.2171125370
 O         -1.5605792445       -1.1462849227        2.2493827567
 C          0.2942587775       -2.5296300424        0.5739841793
 C          1.5631146517       -2.1805297652       -0.1612081393
 C          2.3644765548       -3.1362652268       -0.7730436858
 C          3.5311321121       -2.7677732019       -1.4180547150
 C          3.9367713661       -1.4477022827       -1.4405008342
 C          3.1499422204       -0.4826985507       -0.8212025879
 C          1.9678622812       -0.8505325098       -0.1985806563
 H          1.3562634542       -0.0945891807        0.2753084441
 N          3.5471443472        0.8630994446       -0.8318739412
 S          3.3450347893        1.8217628575        0.5223561184
 O          4.3993653533        2.8103334766        0.4266501175
 O          3.3158706898        1.0402507305        1.7356951011
 C          1.7920140452        2.6454741539        0.2594027112
 C          0.8614469055        2.7033360319        1.2766372701
 C         -0.3064372069        3.4217315170        1.0752977491
 C         -0.5239324219        4.0609073973       -0.1353423360
 C          0.4166637581        3.9846639371       -1.1512618543
 C          1.5898241011        3.2755636740       -0.9527572633
 H          2.3500606945        3.2041145255       -1.7125782077
 H          0.2410732221        4.4797208676       -2.0928390768
 H         -1.4324858497        4.6214566201       -0.2881178133
 H         -1.0397611698        3.4779346469        1.8637983754
 H          1.0651216312        2.1851501426        2.2008794794
 H          4.4387301356        1.0323345281       -1.2748010288
 H          4.8529632184       -1.1593533010       -1.9335048586
 H          4.1372741630       -3.5203624061       -1.8991756198
 H          2.0737756129       -4.1732172896       -0.7534844278
 H          0.4196137520       -2.2306374349        1.6257282697
 C         -0.0418089944       -4.0083313403        0.5319587779
 C          0.6054770346       -4.9614477797        1.4907866414
 C         -0.8404406570       -4.6029276997        1.6513332807
 H         -1.5869405102       -5.3460161696        1.4134114540
 H         -1.1220528560       -3.9454381110        2.4605201106
 H          0.8506103273       -5.9546344594        1.1458072238
 H          1.3111932834       -4.5535205929        2.1985558771
 H         -0.2581521641       -4.3576015831       -0.4723685501
