  62
        -98.94475098
 C          1.8593214827        0.7498463982        0.3802945113
 C          2.4585910778        0.1090749863       -0.7311252524
 C          3.5253615475       -0.8524370373       -0.4146038510
 C          3.8349979356       -1.0964877734        0.8718169110
 C          4.9358931288       -2.0067484916        1.3317517689
 C          6.2541317805       -1.2393348041        1.5054303875
 C          6.6220752315       -0.3637718316        0.3075350528
 H          5.8878163637        0.4395640046        0.2140308989
 H          7.5835220580        0.1038515549        0.5303719363
 C          6.7177012563       -1.1189413080       -1.0255359843
 H          6.8186242579       -2.1888043925       -0.8392620743
 H          7.6202605230       -0.7946191030       -1.5477685806
 C          5.5430543241       -0.8790278898       -1.9759032664
 H          5.8124687728       -1.2786095805       -2.9571798104
 H          5.3806384640        0.1952603518       -2.0936785880
 C          4.2127196980       -1.5253120600       -1.5691039282
 H          3.5264519806       -1.4377715930       -2.4167727067
 H          4.3670833135       -2.5863499647       -1.3618523483
 H          6.1674387690       -0.5971879078        2.3850223777
 H          7.0516019807       -1.9615007135        1.6896071470
 H          4.6477467194       -2.4383155789        2.2919354675
 H          5.0630563625       -2.8095356706        0.6079871004
 O          3.1996209226       -0.4999244023        1.9132560197
 C          2.2037250069        0.4387283002        1.6949067411
 O          1.7006472100        0.9079773889        2.7368026156
 O          2.1233562586        0.3270762618       -1.9238194575
 C          0.7692263049        1.7835783305        0.1603602260
 C         -0.4029912920        1.1535903228       -0.5529638801
 C         -1.0304470435        1.7243779654       -1.6518488850
 C         -2.1001030588        1.0869155183       -2.2579451638
 C         -2.5735290512       -0.1196858448       -1.7781083872
 C         -1.9667303873       -0.6881302358       -0.6644507988
 C         -0.8967304442       -0.0481823244       -0.0590520934
 H         -0.4230388347       -0.4947630085        0.8070580756
 N         -2.4528856600       -1.9029407231       -0.1534451484
 S         -4.1097214658       -2.0966390526       -0.0272583634
 O         -4.3002882539       -3.0262509040        1.0642781931
 O         -4.6487300277       -2.5058842792       -1.3004039907
 C         -4.7457255844       -0.4856524847        0.4033247376
 C         -4.2681930621        0.1205148878        1.5485065949
 C         -4.7327796060        1.3821520965        1.8822994548
 C         -5.6634591894        2.0125639631        1.0703298994
 C         -6.1378796305        1.3881408426       -0.0724994469
 C         -5.6745025603        0.1272613751       -0.4127799833
 H         -6.0125007134       -0.3931331725       -1.2940790545
 H         -6.8629037736        1.8797821944       -0.7007519493
 H         -6.0200502529        2.9961806790        1.3321699953
 H         -4.3634910914        1.8685641906        2.7709931650
 H         -3.5470206411       -0.3953773188        2.1625821776
 H         -1.9781997992       -2.2204416885        0.6782960275
 H         -3.3924781181       -0.6366993676       -2.2512903441
 H         -2.5695104973        1.5350215269       -3.1201400842
 H         -0.6755879220        2.6633723170       -2.0427751694
 H          0.4317857380        2.0851338282        1.1628529684
 C          1.3333349040        2.9967251428       -0.5489631924
 C          0.7296457964        4.3497620749       -0.3260205801
 C          2.0719067960        4.0232207469        0.2545354758
 H          2.9489082093        4.4828545587       -0.1761040107
 H          2.1451149896        3.8599122794        1.3202734718
 H          0.6868036385        5.0387851598       -1.1559061508
 H         -0.1098711748        4.4177260444        0.3489683071
 H          1.7188941967        2.7610026084       -1.5340649749
