  62
        -98.92867751
 C         -2.3859126897       -0.7962710596        1.0129046399
 C         -3.5501749297       -0.9770609896        0.2279395299
 C         -4.5914104698        0.0620006303        0.3600249601
 C         -4.3833553598        1.1184824203        1.1625773902
 C         -5.3101147099        2.2678636602        1.4726016403
 C         -6.1088360400        2.8730793702        0.3110021804
 C         -5.3813374601        2.8796218404       -1.0413275497
 H         -5.4218016102        3.8863548304       -1.4615746896
 H         -4.3281763100        2.6285034504       -0.9015625497
 C         -6.0035337201        1.9203579704       -2.0587642797
 H         -7.0907982501        2.0093280703       -2.0051682896
 H         -5.6992933601        2.2276904605       -3.0622513897
 C         -5.6127192600        0.4521327904       -1.8971695298
 H         -4.5612983000        0.3183984105       -2.1658038799
 H         -6.2010954900       -0.1330078096       -2.6079650398
 C         -5.8138053998       -0.1349764997       -0.4904697298
 H         -6.7032894498        0.2726987302       -0.0166596598
 H         -5.9376401098       -1.2163883097       -0.5936662999
 H         -7.0546668999        2.3441330402        0.2032227504
 H         -6.3530464900        3.8973644702        0.5979481005
 H         -6.0047927998        1.9418531401        2.2524201903
 H         -4.6695460299        3.0352624902        1.9142118703
 O         -3.2296776798        1.2696081303        1.8754555701
 C         -2.2174497497        0.3309470404        1.8194840800
 O         -1.2280750497        0.6009028004        2.5318877799
 O         -3.7409583197       -1.9524403996       -0.5408678401
 C         -1.2206561896       -1.7724882395        1.0182654797
 C         -0.2309334297       -1.3927242193       -0.0531314703
 C         -0.6261078898       -1.2469890793       -1.3794440103
 C          0.2906056801       -0.8721038491       -2.3442815303
 C          1.6132285301       -0.6340989791       -2.0115132804
 C          2.0149416802       -0.7635340791       -0.6890331904
 C          1.0919949703       -1.1434865093        0.2783413496
 H          1.4026159704       -1.2274321593        1.3113009196
 N          3.3614306402       -0.5415742791       -0.3342928905
 S          4.0954472901        0.8770444810       -0.8898856604
 O          3.3212882300        2.0316643509       -0.4886581503
 O          4.3419253000        0.7423403211       -2.3031189204
 C          5.6367962101        0.8133230210        0.0009658495
 C          6.6565635802        0.0245628212       -0.4967712506
 C          7.8475951902       -0.0519939288        0.2072413993
 C          7.9978367402        0.6564059611        1.3902829693
 C          6.9657375902        1.4449181610        1.8762304494
 C          5.7709356302        1.5246847710        1.1779309795
 H          4.9448760402        2.1309429809        1.5147294496
 H          7.0860244102        1.9968538009        2.7945767795
 H          8.9260140303        0.5962183711        1.9363411292
 H          8.6533931602       -0.6619271187       -0.1679387608
 H          6.4974920401       -0.5002606288       -1.4240325407
 H          3.4915921403       -0.6094021591        0.6671897595
 H          2.3309364400       -0.3311421290       -2.7560547404
 H         -0.0268238000       -0.7621122691       -3.3706850303
 H         -1.6576939498       -1.4285365393       -1.6416753902
 H         -0.7267721196       -1.6192142895        1.9911752297
 C         -1.6515824395       -3.2313714495        0.9578543297
 C         -1.3736720995       -4.1355330594       -0.2014203204
 C         -0.6183718194       -4.3127455495        1.0790026095
 H         -0.8341819693       -5.1700107695        1.6983636295
 H          0.4171947505       -4.0065609994        1.0909494695
 H         -2.1337956995       -4.8554575294       -0.4633602704
 H         -0.8459994996       -3.7331113593       -1.0514859004
 H         -2.5891840595       -3.3962869596        1.4780240597
