  62
        -98.94229758
 C          0.8789410770        1.4421808115        0.2672420308
 C          1.4712824538        0.3751433587        0.9759311814
 C          2.4047016827       -0.4888270210        0.2269132214
 C          2.5916966639       -0.2522534703       -1.0850415205
 C          3.4940960570       -0.9832180654       -2.0443648766
 C          4.9754836487       -0.6127028561       -1.8690037558
 C          5.4555696570       -0.5581994887       -0.4211550875
 H          6.4834092892       -0.1861969085       -0.4266369657
 H          4.8512217776        0.1660306988        0.1278398812
 C          5.4456234012       -1.8944968372        0.3171681469
 H          6.0708402103       -2.6076428540       -0.2244953543
 H          5.9033911846       -1.7272429038        1.2953764351
 C          4.0690631420       -2.5247601353        0.5404811444
 H          3.7041032611       -3.0059302446       -0.3633117108
 H          4.1918038086       -3.3167287142        1.2851170254
 C          3.0141997202       -1.5692559992        1.0890069879
 H          3.4158882303       -1.0596235806        1.9724735057
 H          2.1691374471       -2.1609891367        1.4585560773
 H          5.5780160851       -1.3293987556       -2.4297553420
 H          5.1294196590        0.3754248485       -2.3095226003
 H          3.3469372195       -2.0554220358       -1.9517746514
 H          3.1771218388       -0.6944631397       -3.0492810204
 O          1.9735323161        0.7738523222       -1.7362636046
 C          1.1074918425        1.6372395584       -1.0943244352
 O          0.6258790132        2.5257630854       -1.8242083176
 O          1.2374620487        0.1456981945        2.1943048429
 C         -0.0991756370        2.3570955292        0.9827634020
 C         -1.4364888912        2.2846698702        0.2883743622
 C         -2.1843864801        3.3967376763       -0.0731417508
 C         -3.3727338748        3.2414648744       -0.7666482299
 C         -3.8277634502        1.9865712172       -1.1255937253
 C         -3.0945526256        0.8652904460       -0.7509271071
 C         -1.9292925697        1.0228660533       -0.0214827628
 H         -1.3606727230        0.1520034245        0.2685417202
 N         -3.5296970271       -0.4253387131       -1.0812451239
 S         -2.4384384148       -1.6740931854       -1.2922102465
 O         -1.1880468178       -1.2329179433       -1.8654284508
 O         -3.1756416747       -2.6561797811       -2.0610595891
 C         -2.1988129715       -2.3037738474        0.3549509294
 C         -0.9216467482       -2.4979960863        0.8399584871
 C         -0.7610651458       -2.9991037557        2.1220582534
 C         -1.8749364002       -3.2982311082        2.8906177744
 C         -3.1520254718       -3.1035825362        2.3863257975
 C         -3.3189030375       -2.6022967553        1.1058759401
 H         -4.2930002956       -2.4381571009        0.6767035032
 H         -4.0153405475       -3.3378592731        2.9879557358
 H         -1.7434021000       -3.6838122189        3.8892399579
 H          0.2314355984       -3.1413169614        2.5193315065
 H         -0.0809199738       -2.2378849105        0.2137923135
 H         -4.3014492560       -0.4697044408       -1.7299688875
 H         -4.7370604217        1.8707919141       -1.6953329318
 H         -3.9423641042        4.1133774682       -1.0506832910
 H         -1.8305971848        4.3849644398        0.1706357138
 H         -0.2067175569        1.9398927815        1.9951592603
 C          0.4584485872        3.7606562455        1.0865281452
 C          0.0497153034        4.6546751004        2.2180841620
 C          1.4305483761        4.0743390522        2.1828783704
 H          2.2618995394        4.7273048083        1.9633383171
 H          1.6707300245        3.2787108922        2.8728375209
 H         -0.0653465196        5.7105322622        2.0249597945
 H         -0.6474174808        4.2584325442        2.9405289530
 H          0.6374081365        4.2082183787        0.1150405316
