  62
        -98.94054152
 C         -1.8156459632        0.0745140439        0.9749258275
 C         -3.1767533316        0.2913364988        1.3095674693
 C         -4.1676828574       -0.3439786935        0.4341181710
 C         -3.7562323961       -1.0708789202       -0.6203597776
 C         -4.6415091741       -1.8069052190       -1.5890131548
 C         -5.1904346638       -0.9314953819       -2.7237762249
 C         -6.2768608932        0.0624058083       -2.3111013776
 H         -6.7212228768        0.4510215962       -3.2296119060
 H         -7.0622412554       -0.4638381919       -1.7675334154
 C         -5.7687162728        1.2428430022       -1.4714180677
 H         -4.6836346159        1.3208765850       -1.5729805999
 H         -6.1924649201        2.1730831447       -1.8566977673
 C         -6.1235960584        1.1647161172        0.0136098491
 H         -5.6839076128        2.0295656587        0.5171937750
 H         -7.2077161269        1.2212141247        0.1343994772
 C         -5.6189807846       -0.1010303337        0.7188253753
 H         -6.2154174731       -0.9621314697        0.4176586268
 H         -5.7279446131        0.0413246363        1.7968755837
 H         -4.3586817092       -0.3922222915       -3.1832344326
 H         -5.6088946249       -1.6011930615       -3.4786915814
 H         -5.4701424587       -2.2677962970       -1.0505014185
 H         -4.0303372672       -2.5973232401       -2.0300548874
 O         -2.4427562712       -1.2373495265       -0.9223078099
 C         -1.4402776053       -0.6538415112       -0.1548823058
 O         -0.2933257513       -0.8653734956       -0.5863124320
 O         -3.5444267774        0.9853332647        2.2945685297
 C         -0.7646594305        0.7245617449        1.8564208268
 C          0.2729455471        1.4225899457        1.0126861377
 C         -0.1535615078        2.3357696324        0.0509841925
 C          0.7511854831        2.9809273311       -0.7687651738
 C          2.1093471655        2.7474254095       -0.6359251113
 C          2.5471308065        1.8527790779        0.3289860767
 C          1.6338988898        1.1973839773        1.1472489118
 H          1.9967567380        0.4895330556        1.8761227342
 N          3.9336196047        1.6316983232        0.4773939620
 S          4.7481147519        0.8353392077       -0.7505248304
 O          6.1523159675        0.9433170111       -0.4235854895
 O          4.3409946647        1.3881173994       -2.0162195838
 C          4.2460300558       -0.8719917343       -0.6145045885
 C          5.1520637381       -1.8028487810       -0.1432818617
 C          4.7460569687       -3.1187909448        0.0058097768
 C          3.4430473089       -3.4785682639       -0.3058660844
 C          2.5456680337       -2.5310047911       -0.7725123254
 C          2.9471269985       -1.2141425730       -0.9318213189
 H          2.2519309795       -0.4687945985       -1.2828389976
 H          1.5239144742       -2.7878562373       -1.0026372313
 H          3.1235705535       -4.5016653601       -0.1830284391
 H          5.4426181314       -3.8579926317        0.3678183560
 H          6.1526405539       -1.4766430065        0.0907986735
 H          4.1781826485        1.2044507739        1.3603335228
 H          2.8293222954        3.2294339164       -1.2765136831
 H          0.3991115558        3.6755144252       -1.5169155018
 H         -1.2140058610        2.5222002038       -0.0560100863
 H         -1.3206140017        1.4982853653        2.4127601695
 C         -0.1658914908       -0.2096859355        2.8987225285
 C         -0.8772839346       -1.4564587050        3.3295108991
 C          0.3882621309       -1.5542104842        2.5343259016
 H          1.2823103977       -1.8964889231        3.0353599911
 H          0.3263090111       -1.8516322231        1.4996452560
 H         -0.8525136440       -1.7228316442        4.3756037627
 H         -1.8095571661       -1.6985097006        2.8402409412
 H          0.3532907632        0.3352419070        3.6815340191
