  62
        -98.94504082
 C          2.4509741420        1.1640311847       -0.0769076735
 C          3.5723872475        0.8845629495        0.7439291469
 C          4.5279830049       -0.0993846145        0.2206305606
 C          4.2901397822       -0.6757947206       -0.9717599262
 C          5.1502993820       -1.7339864976       -1.5983802850
 C          4.6815471320       -3.1406375936       -1.2007961321
 C          4.4656894586       -3.3185566974        0.3021548472
 H          3.6284556016       -2.6914772533        0.6180060853
 H          4.1674079096       -4.3563007833        0.4665058274
 C          5.6951856668       -2.9965323050        1.1631810084
 H          5.8123142765       -3.7818337705        1.9128515730
 H          6.5929028157       -3.0033951832        0.5439978687
 C          5.6101293467       -1.6687296034        1.9179927274
 H          4.6652392895       -1.6186576307        2.4648298380
 H          6.4169454582       -1.6443575307        2.6552149146
 C          5.7375052461       -0.4043532099        1.0590951979
 H          5.8539703796        0.4465326316        1.7365233767
 H          6.6309521004       -0.4718783298        0.4352254925
 H          3.7362917170       -3.3472734932       -1.7084906058
 H          5.4208911442       -3.8626068811       -1.5523820846
 H          5.0848950565       -1.6322797910       -2.6829825302
 H          6.1832894728       -1.5836714249       -1.2905287045
 O          3.2022293739       -0.3863779498       -1.7297483771
 C          2.2532701549        0.5329978143       -1.3049676042
 O          1.3126739110        0.6964239256       -2.1065682484
 O          3.7659421534        1.4366000962        1.8595453692
 C          1.4297059127        2.1714069307        0.4259796668
 C          0.1371491516        1.4446359356        0.7009499695
 C          0.0163730727        0.6973790388        1.8699335876
 C         -1.1310164763       -0.0276516554        2.1284312222
 C         -2.1797819726       -0.0309713678        1.2243116983
 C         -2.0607491036        0.6941818551        0.0472259448
 C         -0.9145260894        1.4393884259       -0.2007218264
 H         -0.8329750846        1.9898089421       -1.1243972628
 N         -3.1137880093        0.6971022020       -0.8817329458
 S         -3.8919820680       -0.7445941670       -1.2396296494
 O         -3.0235202962       -1.8873340205       -1.0752353023
 O         -4.4575477634       -0.5493145370       -2.5570101135
 C         -5.2178040922       -0.8058835293       -0.0502388044
 C         -5.4066087110       -1.9398976167        0.7150288281
 C         -6.4523972686       -1.9690307466        1.6247578868
 C         -7.2874353426       -0.8697212971        1.7516522727
 C         -7.0863698458        0.2607172084        0.9735644220
 C         -6.0436363868        0.2956646592        0.0617601880
 H         -5.8553355416        1.1531473914       -0.5622755788
 H         -7.7374400010        1.1140090208        1.0751611700
 H         -8.0993537196       -0.8941322552        2.4612182167
 H         -6.6100677256       -2.8474916786        2.2297227927
 H         -4.7287563938       -2.7689389592        0.5863060496
 H         -2.9029295948        1.2094271288       -1.7261114896
 H         -3.0728992669       -0.6034404080        1.4139227538
 H         -1.2121273122       -0.5984685641        3.0410433927
 H          0.8421664621        0.6855831977        2.5678827356
 H          1.8286485419        2.5330546736        1.3833861997
 C          1.2875280902        3.3476823499       -0.5167022631
 C          0.6132723375        4.5967475066       -0.0356756110
 C          2.0935584702        4.5856216953       -0.2675011227
 H          2.4879473358        5.1218750421       -1.1176518089
 H          2.7471667042        4.5906209770        0.5923123982
 H         -0.0108702352        5.1448784460       -0.7247799500
 H          0.2597569926        4.6082039556        0.9840876137
 H          1.1411141777        3.0548978433       -1.5496316931
