  62
        -98.94667675
 C          1.1780713104        1.2677930508        0.0804758445
 C          1.5747155540        0.2900359739        1.0258575417
 C          2.4195211960       -0.7962904634        0.5169353955
 C          2.7079285383       -0.8409412233       -0.7965547963
 C          3.6300321817       -1.8365361425       -1.4380005396
 C          5.0729497699       -1.3118828993       -1.4640278315
 C          5.5637062900       -0.7848453945       -0.1154429869
 H          6.6027792377       -0.4750367294       -0.2464415628
 H          4.9936839887        0.1090336919        0.1478934472
 C          5.4738205717       -1.7987821962        1.0338184748
 H          5.3748107773       -2.8076605221        0.6318031081
 H          6.4059742475       -1.7674269271        1.6018899264
 C          4.3393797362       -1.5339753616        2.0256562873
 H          4.3859883987       -0.4962013542        2.3654436411
 H          4.4967601550       -2.1710126354        2.9001263491
 C          2.9221292054       -1.8089096715        1.5064626746
 H          2.8739387566       -2.8152771579        1.0867936851
 H          2.2397954606       -1.7590597094        2.3598043643
 H          5.1337485926       -0.4992421920       -2.1915521537
 H          5.7271124585       -2.1181880498       -1.8008267151
 H          3.2995612003       -2.0061893152       -2.4641413337
 H          3.5896414020       -2.7748698754       -0.8880715665
 O          2.2217591134        0.0549111553       -1.6900408611
 C          1.4458439305        1.1305913902       -1.2820816310
 O          1.0701898823        1.8651865171       -2.2136879760
 O          1.2439083060        0.3316712537        2.2422097482
 C          0.3677878345        2.4553440113        0.5768589781
 C         -1.0713351914        2.2439290098        0.1803461484
 C         -1.6955219039        2.9237291327       -0.8566140270
 C         -3.0034830442        2.6250121302       -1.2014823527
 C         -3.7146257409        1.6533411692       -0.5204439978
 C         -3.0967569981        0.9694732053        0.5188610276
 C         -1.7876657349        1.2657032446        0.8611377383
 H         -1.3014186749        0.7241081719        1.6626094712
 N         -3.8109193207       -0.0405502079        1.2068445731
 S         -4.0898399143       -1.4342204015        0.3221724419
 O         -4.9088255742       -1.1033660852       -0.8149104765
 O         -4.6405866764       -2.3903111705        1.2547476251
 C         -2.4773062217       -1.9723923362       -0.2195602700
 C         -1.9041823312       -1.3689280066       -1.3212691585
 C         -0.6356717275       -1.7632799734       -1.7145115061
 C          0.0331018229       -2.7475273120       -1.0035325459
 C         -0.5509667408       -3.3347649268        0.1078499945
 C         -1.8165695664       -2.9407449859        0.5093212478
 H         -2.3110255462       -3.3760360674        1.3630012395
 H         -0.0239175523       -4.0955581594        0.6606851054
 H          1.0151751461       -3.0579797306       -1.3216466376
 H         -0.1713731540       -1.2935099359       -2.5677701012
 H         -2.4535466142       -0.6122999407       -1.8579711674
 H         -3.3749757445       -0.2972905525        2.0824560527
 H         -4.7266835469        1.3981958899       -0.7892867763
 H         -3.4756125760        3.1573444499       -2.0133329651
 H         -1.1521060518        3.6740853115       -1.4064331291
 H          0.4213329309        2.4020707718        1.6733353853
 C          0.9469716662        3.7784146980        0.1268646379
 C          0.5280242461        5.0359243479        0.8261108108
 C          1.9116596766        4.4951323944        1.0216129253
 H          2.7401543898        5.0200609810        0.5701614579
 H          2.1516208998        4.0366281667        1.9700017847
 H          0.4052433669        5.9351356908        0.2422027710
 H         -0.1732780440        4.9423695476        1.6415348618
 H          1.1322587723        3.8268159672       -0.9387974309
