  62
        -98.94107218
 C         -1.0708358686       -1.2834482803       -0.2329594094
 C         -1.9507410187       -0.9427718304        0.8262109305
 C         -2.8498549492        0.2049805492        0.6166573402
 C         -2.7990591595        0.8712705489       -0.5515636299
 C         -3.5836496200        2.0612430085       -1.0648594302
 C         -4.7766606902        2.6028013482       -0.2822981503
 C         -6.0082312198        1.6963683277       -0.2978066901
 H         -6.7468980500        2.1056656876        0.3946411099
 H         -6.4430753899        1.7234436573       -1.3002369600
 C         -5.7558157392        0.2317292579        0.0514358603
 H         -5.0618197591       -0.2041564620       -0.6700035196
 H         -6.7034936490       -0.3042904425       -0.0496783195
 C         -5.2284453491       -0.0210286415        1.4617680804
 H         -5.2215000586       -1.1023848915        1.6236013006
 H         -5.9077211092        0.4211142284        2.1934071103
 C         -3.8080202193        0.4984741891        1.7355884702
 H         -3.8180593297        1.5601490292        1.9695320999
 H         -3.4218028990       -0.0275337505        2.6134690103
 H         -4.4845957102        2.8377428886        0.7370432796
 H         -5.0591399106        3.5474714880       -0.7547485306
 H         -2.8540974203        2.8679006788       -1.1900027205
 H         -3.9125312399        1.7906679581       -2.0735213202
 O         -1.9045925094        0.5358056190       -1.5240883099
 C         -1.0267783390       -0.5260319806       -1.4015816696
 O         -0.2853376790       -0.6659309305       -2.3962862796
 O         -1.9899597184       -1.5826649601        1.9101303107
 C         -0.1892744281       -2.5031591599       -0.0182826892
 C          1.1997191317       -2.1024185392        0.4140812007
 C          1.7073353119       -2.4811402887        1.6510197408
 C          2.9727037818       -2.0828051381        2.0482908606
 C          3.7522342214       -1.2885854480        1.2256758904
 C          3.2478785812       -0.9004263785       -0.0081070197
 C          1.9892980314       -1.3158960191       -0.4126401695
 H          1.6037095712       -1.0022574795       -1.3713988396
 N          4.0078150108       -0.0302711684       -0.8288214399
 S          4.0701677102        1.5383864618       -0.2402555003
 O          4.5744815599        2.3524184317       -1.3222085706
 O          4.8458880803        1.5390084524        0.9737083996
 C          2.3781499901        1.9748338312        0.1254874896
 C          1.6356542598        2.6327684506       -0.8335132906
 C          0.3130059297        2.9423790102       -0.5620122406
 C         -0.2468424901        2.5729704603        0.6507918595
 C          0.5058750402        1.8935244808        1.5956112197
 C          1.8332132003        1.5948346013        1.3361175797
 H          2.4519064705        1.0824369217        2.0545077698
 H          0.0598231003        1.5914189509        2.5298223498
 H         -1.2768838102        2.8110229999        0.8644287395
 H         -0.2758159706        3.4632601398       -1.3003329607
 H          2.1071208696        2.9027308006       -1.7650958806
 H          3.6585242708       -0.0004812988       -1.7778266799
 H          4.7263202013       -0.9409466575        1.5291358003
 H          3.3530774419       -2.3866115877        3.0116468507
 H          1.0956175722       -3.0779641888        2.3114891309
 H         -0.6529489679       -3.0494602999        0.8138033710
 C         -0.1322677678       -3.4221360402       -1.2234598389
 C          0.2691671428       -4.8523088800       -1.0280439986
 C         -1.1504540974       -4.5113950306       -1.3667523686
 H         -1.5183864173       -4.7454516410       -2.3544723385
 H         -1.8962530073       -4.6046337607       -0.5907615386
 H          0.8799672429       -5.3230777399       -1.7829283985
 H          0.4854222429       -5.1784451196       -0.0220667785
 H          0.1946656920       -2.9266496903       -2.1283563891
