  62
        -98.94384687
 C         -1.8869349765       -0.6103653857        0.7565666832
 C         -2.2817264772        0.5017641057       -0.0254242608
 C         -3.7267198604        0.7623580001       -0.0729737570
 C         -4.5728355842       -0.0197507695        0.6219526574
 C         -6.0676094812        0.1374297418        0.6957074112
 C         -6.8228648662       -0.5092986895       -0.4733641042
 C         -6.7006041913        0.2221333955       -1.8106531719
 H         -7.4456652726       -0.2100456486       -2.4815902624
 H         -6.9567468152        1.2731974522       -1.6737860501
 C         -5.3190464282        0.1089334380       -2.4701892553
 H         -5.4394003885       -0.1291531147       -3.5294984332
 H         -4.7651614483       -0.7168421567       -2.0177568455
 C         -4.4698265620        1.3774044564       -2.3856153147
 H         -4.9515280012        2.1795828231       -2.9493402704
 H         -3.5017151781        1.1743084423       -2.8510299293
 C         -4.2121934354        1.8718525941       -0.9561154056
 H         -3.4286620548        2.6330624286       -0.9923948426
 H         -5.1165406370        2.3197742337       -0.5444722954
 H         -7.8795633892       -0.5445335253       -0.1985710558
 H         -6.4745689363       -1.5383115498       -0.5877244097
 H         -6.3223238289        1.1960076903        0.7537213423
 H         -6.3852079822       -0.3482700664        1.6208843827
 O         -4.1486404782       -1.0652366662        1.3808033302
 C         -2.8050615911       -1.3961586207        1.4529056535
 O         -2.5573041405       -2.3886231330        2.1674624294
 O         -1.4747149090        1.2424294381       -0.6458714010
 C         -0.4200450284       -0.9876074326        0.8521118784
 C          0.3978352820        0.1834404595        1.3387615525
 C         -0.0606770580        0.9239494016        2.4252577810
 C          0.6572042718        2.0060083041        2.8951060589
 C          1.8514804490        2.3683031390        2.2978943814
 C          2.3299073020        1.6235255081        1.2263021277
 C          1.6090407322        0.5316452447        0.7605748821
 H          1.9886553921       -0.0222139167       -0.0812268044
 N          3.5641388461        1.9393946084        0.6510525897
 S          4.0528799212        1.4345490951       -0.8572820024
 O          5.2495536356        2.2095140361       -1.1114229284
 O          3.0117373895        1.5444412692       -1.8512955552
 C          4.5101660230       -0.2720610300       -0.6281206439
 C          4.3340303203       -1.1526752816       -1.6768654168
 C          4.7295483174       -2.4721921002       -1.5217000811
 C          5.2904600197       -2.8873552106       -0.3241883500
 C          5.4624152213       -1.9905824936        0.7190297809
 C          5.0745614506       -0.6688495891        0.5679098196
 H          5.1950388713        0.0514040357        1.3595781474
 H          5.8980914717       -2.3169205006        1.6496429174
 H          5.5935867225       -3.9154044095       -0.2041779120
 H          4.5972792183       -3.1703561063       -2.3330311068
 H          3.8826405838       -0.7898352199       -2.5870429125
 H          3.9830868285        2.8095516606        0.9396098111
 H          2.4086361337        3.2199566241        2.6568984144
 H          0.2820269147        2.5776338620        3.7307801621
 H         -0.9981116875        0.6461689046        2.8881815901
 H         -0.3607314925       -1.7839912648        1.6089495070
 C          0.0566703295       -1.5433793157       -0.4743227372
 C          1.1248123590       -2.5934308799       -0.5143179438
 C         -0.2941453886       -2.9553126895       -0.8322632824
 H         -0.5552410804       -3.1784587732       -1.8559163393
 H         -0.8555313923       -3.5230463585       -0.1042751366
 H          1.8413394309       -2.5674721474       -1.3211964541
 H          1.5347156420       -2.9261575206        0.4272002436
 H          0.0347877439       -0.8037758339       -1.2678212089
