  62
        -98.94512465
 C         -2.4491496495       -1.2055370856       -0.0859129479
 C         -3.5168010338       -0.8141549149        0.7617899238
 C         -4.4023483863        0.2371660818        0.2469476977
 C         -4.1589091853        0.7640014774       -0.9669118171
 C         -4.9460649747        1.8787831244       -1.5912525811
 C         -4.3404054870        3.2471783939       -1.2490639668
 C         -4.0505292869        3.4403577129        0.2395209124
 H         -3.2587537823        2.7499461115        0.5404805988
 H         -3.6564878805        4.4513582669        0.3644566685
 C         -5.2682090953        3.2485280114        1.1545626868
 H         -6.1857282943        3.3222787773        0.5697317501
 H         -5.2847755581        4.0576420809        1.8876680763
 C         -5.2715893232        1.9357662463        1.9400027471
 H         -4.3132904604        1.8128884630        2.4508954728
 H         -6.0464899236        2.0015899060        2.7082487439
 C         -5.5467048128        0.6687958009        1.1203067736
 H         -5.7128184698       -0.1523184800        1.8235831031
 H         -6.4538845885        0.8031966310        0.5279720529
 H         -3.4011950033        3.3573563913       -1.7966370426
 H         -5.0266426380        4.0236717398       -1.5920413790
 H         -5.9758155085        1.8282632159       -1.2427673949
 H         -4.9308090656        1.7457894073       -2.6743398819
 O         -3.1274576803        0.3641038514       -1.7524711699
 C         -2.2401519716       -0.6171701735       -1.3332159499
 O         -1.3416455182       -0.8684564611       -2.1603615199
 O         -3.7207088249       -1.3252426893        1.8948219555
 C         -1.4955226055       -2.2743541044        0.4248073803
 C         -0.1749958146       -1.6132809549        0.7324842400
 C          0.0027485756       -0.9834959403        1.9614239730
 C          1.1740516919       -0.3066668113        2.2445800961
 C          2.1881096337       -0.2326731679        1.3050802338
 C          2.0123797191       -0.8409865102        0.0700999197
 C          0.8453629975       -1.5423923425       -0.2030057098
 H          0.7171039850       -1.9984385926       -1.1718802637
 N          3.0288549847       -0.7563279694       -0.8979529904
 S          3.6905697600        0.7559217388       -1.2083567850
 O          2.7547987206        1.8216932515       -0.9321893701
 O          4.1991659550        0.6780531196       -2.5606695544
 C          5.0689299314        0.8446420309       -0.0823103593
 C          5.2010319301        1.9283674468        0.7635636042
 C          6.2863207294        1.9784683111        1.6248221806
 C          7.2158257686        0.9498785852        1.6242622093
 C          7.0708006786       -0.1299971393        0.7659710928
 C          5.9889963244       -0.1854788919       -0.0980777903
 H          5.8409009627       -1.0043367009       -0.7819461281
 H          7.7957816631       -0.9278973813        0.7680810663
 H          8.0582874121        0.9903563556        2.2964940110
 H          6.4006539192        2.8177891674        2.2919091780
 H          4.4498119864        2.7017134815        0.7334617345
 H          2.7891648121       -1.2172515264       -1.7645397869
 H          3.0990679650        0.3042100184        1.5134114096
 H          1.2994912770        0.1723605005        3.2037417365
 H         -0.7984037856       -1.0201695277        2.6864085702
 H         -1.9317503728       -2.6207696140        1.3712695192
 C         -1.3879146034       -3.4526108284       -0.5197959954
 C         -0.7791001453       -4.7302790025       -0.0269472584
 C         -2.2522019900       -4.6546463327       -0.2901901262
 H         -2.6513317408       -5.1720918216       -1.1497179025
 H         -2.9231289262       -4.6332576400        0.5559603601
 H         -0.1642951097       -5.3037477898       -0.7035951634
 H         -0.4486806584       -4.7584547215        1.0002533203
 H         -1.2067506468       -3.1671123902       -1.5486968532
