  62
        -98.94219401
 C         -0.8930571107       -1.1839310609        0.7208711993
 C         -1.5195313105       -0.9668420695       -0.5275228305
 C         -2.3012504602        0.2767192409       -0.6680287794
 C         -2.3623075800        1.1258347099        0.3737024515
 C         -3.1332700797        2.4152459500        0.4566459527
 C         -4.6435284898        2.1905900201        0.6660008624
 C         -5.2395837400        1.0065184011       -0.0933534189
 H         -4.6658842803        0.1068875507        0.1374536903
 H         -6.2546564401        0.8481408809        0.2802154609
 C         -5.3241473298        1.1783510626       -1.6082354687
 H         -6.0144852796        1.9940855630       -1.8363308579
 H         -5.7465570400        0.2590765431       -2.0217503297
 C         -4.0021331297        1.4640707830       -2.3197711683
 H         -3.6638576795        2.4745170227       -2.1055983773
 H         -4.1934251296        1.4235839341       -3.3965241884
 C         -2.8855874900        0.4589586924       -2.0464303792
 H         -3.2174438302       -0.5374997372       -2.3597599103
 H         -2.0323316299        0.7025055029       -2.6938060689
 H         -5.1721150395        3.1046339006        0.3914600032
 H         -4.8084198499        2.0116727791        1.7308635322
 H         -2.9405188995        3.0098762008       -0.4325532467
 H         -2.7429614596        2.9668119290        1.3147786333
 O         -1.7371732902        0.8782267785        1.5599623313
 C         -0.9695690705       -0.2551616519        1.7557807802
 O         -0.4160566806       -0.3200247832        2.8722141602
 O         -1.4420139006       -1.7799543885       -1.4865598914
 C         -0.0111221210       -2.4036318413        0.9218332981
 C          1.0859363891       -2.3857583405       -0.1155951218
 C          1.4809025489       -3.4966510099       -0.8484762828
 C          2.4667128790       -3.3795106392       -1.8138354326
 C          3.0643105493       -2.1607099591       -2.0775430714
 C          2.6867418896       -1.0461451497       -1.3365737803
 C          1.7274148294       -1.1757730405       -0.3477334905
 H          1.4367995596       -0.3090359410        0.2276002404
 N          3.2736796499        0.2092161504       -1.5537045290
 S          2.3678572802        1.5996659104       -1.3397222876
 O          0.9929225502        1.4282303811       -1.7480522679
 O          3.1133217106        2.6180153609       -2.0518266965
 C          2.4699212402        1.9288565786        0.4060666027
 C          3.6902214301        1.7975792676        1.0386369427
 C          3.7693497000        2.0615363662        2.3964031430
 C          2.6357870001        2.4518880558        3.0934049833
 C          1.4199917902        2.5877385068        2.4419609833
 C          1.3354152402        2.3267968782        1.0840279430
 H          0.4046823803        2.4021035690        0.5420578630
 H          0.5342368102        2.8766739565        2.9845999135
 H          2.6958037000        2.6475947747        4.1523444735
 H          4.7121264400        1.9567720655        2.9088716629
 H          4.5473104701        1.4865349880        0.4650877924
 H          3.8850121400        0.2686270810       -2.3548632688
 H          3.8109826294       -2.0671319085       -2.8512732812
 H          2.7603487888       -4.2479278287       -2.3839097735
 H          1.0076458386       -4.4494603099       -0.6765180938
 H          0.4493967690       -2.2865687324        1.9140470283
 C         -0.8366250313       -3.6726443511        0.9108681668
 C         -0.3917225117       -4.8696629220        1.6950243456
 C         -1.5702166415       -4.0674586921        2.1561387863
 H         -2.5572351716       -4.4942594218        2.0599276758
 H         -1.4521120514       -3.4318138230        3.0217724970
 H         -0.5722581719       -5.8515728315        1.2842399346
 H          0.5266376483       -4.7866548728        2.2561624158
 H         -1.3355237313       -3.8345336800       -0.0377188434
