  62
        -98.94442991
 C          1.7046530653        1.4460337271        0.5627010658
 C          2.6329532315        1.0083058761       -0.4141267805
 C          3.3957025763       -0.1999391638       -0.0683803892
 C          3.1482883029       -0.8518531024        1.0810974842
 C          3.8497884146       -2.0905674716        1.5689797106
 C          3.2944484495       -3.3997548421        0.9912784272
 C          3.6146992877       -3.6511856319       -0.4827688847
 H          4.6892168610       -3.5527868209       -0.6404323223
 H          3.3508428848       -4.6892892211       -0.6950225296
 C          2.8630781320       -2.7381227366       -1.4621185286
 H          2.0189435532       -2.2674460606       -0.9535882468
 H          2.4541477552       -3.3366986638       -2.2789594879
 C          3.7235506743       -1.6427832379       -2.0906861533
 H          4.5032368633       -2.0935327964       -2.7087854659
 H          3.0863176570       -1.0368525076       -2.7394034895
 C          4.3871077017       -0.7071792139       -1.0721426351
 H          5.2082840753       -1.2182373628       -0.5699817891
 H          4.7881015467        0.1554563115       -1.6097434386
 H          2.2125750819       -3.4148039428        1.1375345527
 H          3.7193395923       -4.2182705497        1.5771417515
 H          4.9148482535       -2.0171727922        1.3468864636
 H          3.7236726705       -2.1126871433        2.6538045978
 O          2.2084528757       -0.4295247323        1.9692473168
 C          1.4666396170        0.7132804000        1.7294795694
 O          0.6328292452        0.9749383217        2.6208364349
 H         -1.5762948278        2.0890929116        1.4176439490
 C         -1.5620281658        1.9087529608        0.3511453858
 C         -0.4105785067        2.1943926178       -0.3686120283
 C         -0.3925779563        1.9263514943       -1.7333043005
 C         -1.5037076438        1.3831111262       -2.3532091516
 C         -2.6464347563        1.0858753423       -1.6298748992
 C         -2.6702164718        1.3481361539       -0.2668744559
 N         -3.8120938021        1.0145409483        0.4873509053
 S         -4.3784823734       -0.5502115456        0.3098458064
 O         -5.2134381398       -0.6266549790       -0.8630945124
 O         -5.0277208451       -0.8694473541        1.5621705398
 C         -2.9343547961       -1.5761267350        0.0793669971
 C         -1.9033738586       -1.4934578700        0.9942832251
 C         -0.7898885941       -2.2997647515        0.8239479650
 C         -0.7285311410       -3.1783633125       -0.2466454265
 C         -1.7708178765       -3.2480346056       -1.1578338254
 C         -2.8831336784       -2.4378068000       -0.9975854489
 H         -3.7130718863       -2.4550543036       -1.6851448317
 H         -1.7174901337       -3.9295499835       -1.9913246278
 H          0.1356963020       -3.8119321103       -0.3720685529
 H          0.0232819551       -2.2249885121        1.5301880963
 H         -1.9622661358       -0.8084101707        1.8254705322
 H         -3.7252795650        1.2464225387        1.4667423069
 H         -3.5138196550        0.6461194611       -2.0953776123
 H         -1.4776003893        1.1768445649       -3.4123114148
 H          0.5087835695        2.1149593236       -2.2951075787
 C          0.8139004006        2.6673350208        0.3758386633
 H          0.4962121491        2.9649546557        1.3843959910
 C          1.4947162796        3.8507550196       -0.2752385859
 C          0.8596226430        5.2019117204       -0.1486392876
 C          2.1259621187        4.8963224820        0.5920992753
 H          3.0444272154        5.3552611287        0.2585093219
 H          2.0707391248        4.7620344454        1.6629373490
 H         -0.0554866371        5.2740404819        0.4201081428
 H          0.9058083293        5.8735245927       -0.9919598352
 H          1.9961164011        3.6141964594       -1.2030364496
 O          2.8378226415        1.5768359127       -1.5170024902
