  62
        -98.93765407
 C         -1.6869370234       -1.5186850595       -0.0009094715
 C         -2.2457873988       -0.7011062970        1.0155835774
 C         -3.1600676591        0.3722860154        0.5886742037
 C         -3.4347502603        0.5094172762       -0.7196742375
 C         -4.3415544153        1.5177913951       -1.3703179424
 C         -3.5540662588        2.7473872317       -1.8526689373
 C         -3.3580584381        3.8358661677       -0.7980203676
 H         -2.6739620781        4.5770662274       -1.2176961836
 H         -4.3115551157        4.3358801992       -0.6161030179
 C         -2.7943712121        3.3443738505        0.5374925085
 H         -2.3364505747        4.1956371687        1.0444184823
 H         -2.0026004363        2.6188690640        0.3443962069
 C         -3.8615163172        2.7295442907        1.4561825275
 H         -3.8100007815        3.2055942111        2.4373903260
 H         -4.8489147055        2.9571602042        1.0551493566
 C         -3.7387311236        1.2162400680        1.6914703710
 H         -3.0898092553        1.0297896023        2.5530885515
 H         -4.7234348822        0.8167117574        1.9559086023
 H         -4.0784505585        3.1880072104       -2.7030545949
 H         -2.5808846700        2.4039175947       -2.2138898599
 H         -4.7778731456        1.0229981555       -2.2408527639
 H         -5.1419662612        1.8054007473       -0.6948918618
 O         -2.8557704941       -0.2753462717       -1.6672706242
 C         -1.9565677954       -1.2810473043       -1.3483452526
 O         -1.4852563207       -1.8538219506       -2.3525354700
 H          0.5964305564       -1.3976900612       -1.5093472599
 C          1.2130239138       -1.5652397021       -0.6382101917
 C          0.6766223762       -2.2126391022        0.4645341533
 C          1.4914233244       -2.4262767448        1.5699055676
 C          2.8102300761       -2.0051603337        1.5675019882
 C          3.3341835827       -1.3374954358        0.4751960725
 C          2.5220394729       -1.1080880740       -0.6278833277
 N          3.0177444519       -0.3427543657       -1.7013851171
 S          3.6206354155        1.1653218815       -1.2683253545
 O          3.2298166174        2.0647263764       -2.3321493043
 O          5.0399166606        1.0554416376       -1.0371286696
 C          2.8090039549        1.5927444256        0.2661225466
 C          3.5790446744        1.8720094675        1.3768716320
 C          2.9493578479        2.1487923111        2.5796944205
 C          1.5659521153        2.1226811454        2.6551054420
 C          0.8052714650        1.8432249608        1.5302732578
 C          1.4285014856        1.5854498778        0.3205504293
 H          0.8556015931        1.3693912899       -0.5684691896
 H         -0.2705773193        1.8046936450        1.5976499183
 H          1.0710278502        2.3157847765        3.5935582734
 H          3.5380637786        2.3704938358        3.4550603081
 H          4.6521477228        1.8578490557        1.2769707230
 H          2.3541727116       -0.2502911779       -2.4579049004
 H          4.3500926636       -0.9760774621        0.4613526650
 H          3.4321549538       -2.1831289780        2.4308762666
 H          1.0806204079       -2.9106167008        2.4427849964
 C         -0.7719928109       -2.6400728150        0.4631790133
 H         -1.0597392889       -2.8348481063        1.5050813892
 C         -0.9346765028       -3.9240776211       -0.3272310209
 C         -0.5761969598       -5.2288329016        0.3152072262
 C         -2.0129665988       -4.8914206199        0.0541540231
 H         -2.5358322213       -5.4142366906       -0.7325139190
 H         -2.6380819096       -4.6357420143        0.8973495526
 H         -0.1073254205       -5.9878662461       -0.2917710135
 H         -0.2300514736       -5.2075897026        1.3371304157
 H         -0.7228529395       -3.8069308812       -1.3822068871
 O         -1.9930316979       -0.8668511023        2.2378902782
