  62
        -98.94947535
 C         -0.8853306130       -1.7408475869       -0.2731536163
 C         -2.1754583584       -1.6748361634        0.3003280469
 C         -3.0342489449       -0.5872788461       -0.1804147284
 C         -2.5667846529        0.2727141173       -1.1032972312
 C         -3.3147355029        1.4456617483       -1.6774521208
 C         -3.2724071047        2.7000489511       -0.7931643987
 C         -4.1546384198        2.6487620362        0.4546487353
 H         -4.2229880857        3.6685174683        0.8391621543
 H         -5.1623022013        2.3346785061        0.1790937348
 C         -3.6133435562        1.7427150333        1.5693865240
 H         -3.6943856537        2.2608229944        2.5283777225
 H         -2.5479876064        1.5585370156        1.4063837226
 C         -4.3452240442        0.4082646296        1.7160174446
 H         -3.8388343633       -0.1745175688        2.4898693830
 H         -5.3706383231        0.5895149116        2.0478603873
 C         -4.3914072668       -0.4381613501        0.4381228892
 H         -4.7441933034       -1.4377453261        0.7056500309
 H         -5.0887168055       -0.0010862609       -0.2765806949
 H         -3.5931864234        3.5452878981       -1.4070988604
 H         -2.2400623446        2.8831371068       -0.4831487172
 H         -2.8416093398        1.6793591792       -2.6336230296
 H         -4.3526479713        1.1669052899       -1.8630684010
 O         -1.3294095077        0.1580342745       -1.6534725100
 C         -0.4515023529       -0.8332040605       -1.2401505663
 O          0.6589019728       -0.8056621032       -1.8027461899
 H          0.3563248897       -0.3233573508        1.2916266207
 C          1.2980989777       -0.8495193969        1.2562777631
 C          1.3563890744       -2.1367908990        0.7415861513
 C          2.5848898203       -2.7884766276        0.7368326048
 C          3.7172165200       -2.1576070583        1.2213806095
 C          3.6597958822       -0.8576599907        1.6908384826
 C          2.4370659147       -0.1973079451        1.6972716373
 N          2.3219722359        1.1339535739        2.1375733477
 S          1.4240639682        2.2123398764        1.2305160957
 O          1.8464557421        3.5131190582        1.7131540968
 O          0.0148383122        1.9368169011        1.3602495074
 C          1.9326557184        2.0456409708       -0.4716316340
 C          0.9998553438        2.3071066285       -1.4522384389
 C          1.3787557272        2.2370402017       -2.7819552279
 C          2.6833960565        1.9074494292       -3.1085357288
 C          3.6132780813        1.6558795654       -2.1128635255
 C          3.2400300718        1.7304057690       -0.7811474702
 H          3.9518562169        1.5375224295        0.0044018819
 H          4.6278582522        1.3957844192       -2.3690256354
 H          2.9747387651        1.8411164613       -4.1450124987
 H          0.6504224970        2.4259505713       -3.5543334402
 H         -0.0111934933        2.5404671492       -1.1590054033
 H          3.1861067171        1.5575609158        2.4439146755
 H          4.5478031553       -0.3594100596        2.0496287951
 H          4.6620550587       -2.6791314407        1.2170671520
 H          2.6539544482       -3.7924089915        0.3505585506
 C          0.0937532777       -2.7847800385        0.2245117949
 H         -0.4100185233       -3.2853179071        1.0659764184
 C          0.3702476812       -3.8126505632       -0.8563066196
 C          0.5776225445       -5.2554351286       -0.5067648239
 C         -0.6890841690       -4.8222244086       -1.1792313735
 H         -0.8478656047       -5.0919520911       -2.2124507735
 H         -1.5957147891       -4.7893209104       -0.5925744534
 H          1.2900657929       -5.8276796414       -1.0817547232
 H          0.5232222503       -5.5327953092        0.5352932598
 H          0.9350428466       -3.3977741145       -1.6835760969
 O         -2.5889844985       -2.4852752148        1.1749794310
