  62
        -98.94482711
 C         -1.5992086325       -1.2818272212       -0.2883550147
 C         -1.4219231517        0.1086785044       -0.4866781078
 C         -2.3206930094        0.9856844168        0.2752256556
 C         -3.2107737098        0.4602001380        1.1340856769
 C         -4.1719490886        1.2280139461        2.0005443239
 C         -5.4635151841        1.6461455455        1.2837537620
 C         -5.3086027316        2.7740523538        0.2625659323
 H         -6.3144643422        3.1113461460        0.0045894355
 H         -4.7926386183        3.6144322684        0.7280198857
 C         -4.5786895051        2.3679975854       -1.0253386802
 H         -4.5654682630        1.2788366282       -1.1076856080
 H         -5.1270877106        2.7486378418       -1.8898625835
 C         -3.1453002526        2.8885349950       -1.1318656021
 H         -3.1539005689        3.9794917290       -1.1833564906
 H         -2.7108692628        2.5089693032       -2.0598249807
 C         -2.2355931621        2.4616557643        0.0272252742
 H         -1.2011804923        2.6966357366       -0.2355611150
 H         -2.4918025289        3.0122223280        0.9323301344
 H         -5.8899419552        0.7672601135        0.7946647097
 H         -6.1685928374        1.9742592184        2.0510673762
 H         -4.4360245367        0.5681448495        2.8300018642
 H         -3.6741818704        2.1097502119        2.4059311408
 O         -3.3289398405       -0.8805291874        1.3278677778
 C         -2.5409682883       -1.7724532577        0.6213680489
 O         -2.7743548006       -2.9710675105        0.8818127123
 H          1.1764032216       -0.5883575245       -0.2897147724
 C          1.3800003246       -1.5763628724        0.0860117328
 C          0.4940871042       -2.6102609613       -0.1858693626
 C          0.7716197334       -3.8794887446        0.3064521300
 C          1.9034013065       -4.1037764103        1.0699120748
 C          2.7612727457       -3.0633098195        1.3734175129
 C          2.4932772534       -1.7878146766        0.8849054465
 N          3.3536145463       -0.7238949738        1.1848526180
 S          2.8088509216        0.8372616875        1.4832408781
 O          3.6633855928        1.3130682152        2.5542251552
 O          1.3902069763        0.8711101982        1.7405464096
 C          3.2476038834        1.7153108633       -0.0031763095
 C          2.3070615094        1.9876796717       -0.9745041151
 C          2.7069892893        2.6582286606       -2.1213746761
 C          4.0291764717        3.0417337364       -2.2777950074
 C          4.9625943373        2.7614743441       -1.2907079641
 C          4.5703452202        2.0930442178       -0.1434655881
 H          5.2583485860        1.8687408845        0.6547104613
 H          5.9909072060        3.0616344073       -1.4123429047
 H          4.3324638731        3.5626049463       -3.1724158665
 H          1.9762215337        2.8717425215       -2.8852500370
 H          1.2831745170        1.6736816118       -0.8399861279
 H          4.1070138694       -0.9636315425        1.8125595475
 H          3.6311831084       -3.2311312571        1.9905506862
 H          2.1096118348       -5.0936659744        1.4481566942
 H          0.0824391188       -4.6867987830        0.1063827815
 C         -0.7644297843       -2.3498485133       -0.9803211151
 H         -1.3704341142       -3.2661718018       -0.9493567290
 C         -0.4402405487       -2.0420070022       -2.4283881086
 C         -0.1340065394       -3.1760315726       -3.3581065418
 C         -1.4211312740       -2.4203929250       -3.4951476918
 H         -1.5468767435       -1.7567077372       -4.3372028359
 H         -2.3343877528       -2.9072590818       -3.1840626569
 H          0.6281335464       -3.0336531694       -4.1085188879
 H         -0.1760581062       -4.1778911497       -2.9581358694
 H          0.1065983807       -1.1186420514       -2.5613793286
 O         -0.5703714688        0.6211340046       -1.2597718800
