  62
        -98.94056173
 C         -2.3396654651        0.1961813724       -0.2758603122
 C         -3.5171578914        0.5891481898       -0.9556516911
 C         -4.7258264748       -0.1863262795       -0.6478933149
 C         -4.6442724792       -1.2135873341        0.2176472076
 C         -5.8058049984       -2.0544829327        0.6606293633
 C         -6.4572760513       -1.4786044311        1.9257646323
 C         -6.7605592204        0.0171383235        1.8380711829
 H         -7.2449419701        0.3060271788        2.7733519175
 H         -5.8193351463        0.5688020836        1.7805349160
 C         -7.6541778833        0.4154463184        0.6551616095
 H         -8.1729086787       -0.4632724686        0.2704385801
 H         -8.4161613408        1.1119593078        1.0111968777
 C         -6.9168505782        1.1104595611       -0.4909759049
 H         -7.6631463903        1.5400704710       -1.1645179994
 H         -6.3196925010        1.9359098124       -0.0952463448
 C         -6.0008032600        0.2152263958       -1.3350436578
 H         -5.6978157964        0.7873139861       -2.2168972806
 H         -6.5530161528       -0.6652076275       -1.6695802966
 H         -7.3801363612       -2.0282489661        2.1195396309
 H         -5.7807841484       -1.6415864541        2.7679113891
 H         -6.5361325214       -2.1091522122       -0.1442513616
 H         -5.4393412705       -3.0593846286        0.8765467804
 O         -3.4890838045       -1.5776151035        0.8313665462
 C         -2.3106453220       -0.8796057795        0.6113424633
 O         -1.3321486902       -1.3109916465        1.2498452917
 O         -3.5535151403        1.5388512700       -1.7841102122
 C         -1.0568545343        0.9670245149       -0.5265536933
 C          0.0198065032        0.0423249070       -1.0375132231
 C         -0.2580188744       -0.7675974587       -2.1366326883
 C          0.6986500802       -1.6255531873       -2.6417500262
 C          1.9585229377       -1.6855510880       -2.0716594428
 C          2.2459290618       -0.8830652658       -0.9747156430
 C          1.2798347354       -0.0247627000       -0.4664991889
 H          1.5325891301        0.5854217727        0.3839983489
 N          3.5054252532       -0.9408211141       -0.3568011413
 S          4.1538382775        0.4736129394        0.2962083698
 O          3.6132497287        0.6781872108        1.6163137182
 O          3.9954990400        1.5671873779       -0.6361569744
 C          5.8722406169        0.0108607417        0.4182319307
 C          6.7498944140        0.3868874533       -0.5811615468
 C          8.0774696691       -0.0006855846       -0.4884347177
 C          8.5020623251       -0.7560472922        0.5942638814
 C          7.6097392112       -1.1252573293        1.5900218759
 C          6.2813234465       -0.7401400641        1.5041356398
 H          5.5541440002       -0.9951434390        2.2574787085
 H          7.9439431577       -1.7096019311        2.4320984098
 H          9.5356248164       -1.0561649756        0.6645577844
 H          8.7742787170        0.2877946614       -1.2588243835
 H          6.3769094897        0.9819509714       -1.3991934082
 H          4.1884865658       -1.4508804505       -0.8999068154
 H          2.7076505454       -2.3547420807       -2.4668410685
 H          0.4660061375       -2.2486546082       -3.4923611252
 H         -1.2404604578       -0.7151640083       -2.5865350096
 H         -1.2968285408        1.6840155722       -1.3265872639
 C         -0.6537264202        1.7407166636        0.7106735615
 C          0.1852820538        2.9760353059        0.5855682488
 C         -1.2603578380        3.0868361214        0.9641518382
 H         -1.5090675683        3.3576672909        1.9793030480
 H         -1.9538847513        3.4645392240        0.2269900297
 H          0.9373054492        3.1645500144        1.3375563252
 H          0.4793954705        3.2808191977       -0.4077276900
 H         -0.4858481681        1.0979741525        1.5686058940
