  62
        -98.92830653
 C         -2.3299840812       -0.8975187188        0.3112865712
 C         -2.5063387154        0.5064871075        0.4069088747
 C         -3.7607341528        1.0514078894       -0.1276843404
 C         -4.6582558079        0.2193136085       -0.6850834640
 C         -5.9640232633        0.5999297587       -1.3318122485
 C         -7.0312724375        1.2125126319       -0.4046906722
 C         -7.0277671805        2.7455969107       -0.3633599230
 H         -6.5811998849        3.1207516618       -1.2849562333
 H         -8.0607973526        3.0988357252       -0.3486973456
 C         -6.3230001492        3.3790686848        0.8399631125
 H         -6.9760900992        3.3104097088        1.7129193882
 H         -6.1762347092        4.4391206087        0.6220024343
 C         -4.9779190803        2.7635296343        1.2268174569
 H         -5.1418547673        1.8099236276        1.7345174567
 H         -4.4980290449        3.4205892429        1.9550613090
 C         -4.0170578103        2.5201018661        0.0466320301
 H         -4.4162201423        2.9511402111       -0.8704889461
 H         -3.0491822753        2.9825923809        0.2515871648
 H         -8.0016472114        0.8844883305       -0.7806060654
 H         -6.9186311989        0.8035808315        0.5989796690
 H         -5.7583295769        1.2902238235       -2.1530367039
 H         -6.3540533756       -0.3246083403       -1.7621648044
 O         -4.4502989424       -1.1213560635       -0.7651450767
 C         -3.2964400332       -1.7195111969       -0.2708317641
 O         -3.2764353947       -2.9538714020       -0.4213031467
 O         -1.6473423210        1.2742130910        0.9217605372
 C         -1.0360251160       -1.4592518600        0.8713990399
 C          0.0299104843       -1.5420170247       -0.1920514104
 C         -0.2239431833       -2.1317164690       -1.4267188371
 C          0.7693261167       -2.1987242263       -2.3862995271
 C          2.0273321085       -1.6798743848       -2.1364427465
 C          2.2943037585       -1.0947479232       -0.9037456000
 C          1.2946001380       -1.0289710836        0.0575631923
 H          1.5064409272       -0.5517939319        1.0025087638
 N          3.5807587155       -0.6095043843       -0.6143072350
 S          3.7603558007        0.7591373726        0.3584634695
 O          3.5356108202        0.3849939409        1.7316627016
 O          2.9602448798        1.8467563588       -0.1580872556
 C          5.4940595603        1.0878888493        0.1028881628
 C          6.4189831524        0.3473575169        0.8145686170
 C          7.7685912063        0.5754127039        0.5985326109
 C          8.1689215249        1.5343158380       -0.3203251079
 C          7.2292700393        2.2714342788       -1.0251283391
 C          5.8775926972        2.0472911645       -0.8148799687
 H          5.1115713450        2.6019327507       -1.3328461935
 H          7.5435419545        3.0186890365       -1.7358463518
 H          9.2199730751        1.7105430437       -0.4860095999
 H          8.5020856999        0.0065531185        1.1467329886
 H          6.0605213818       -0.3798674937        1.5241370808
 H          4.1619590036       -0.5421192725       -1.4393227057
 H          2.7991753519       -1.7302270077       -2.8893975745
 H          0.5597805605       -2.6563334451       -3.3415119647
 H         -1.2043316275       -2.5392642848       -1.6220071668
 H         -0.7000399767       -0.7092193702        1.6064948009
 C         -1.2206606812       -2.7727869968        1.6197297010
 C         -0.7077594659       -4.0878735103        1.1234928970
 C         -0.0448687908       -3.4213764567        2.2889659670
 H         -0.1778696397       -3.8417021112        3.2743259466
 H          0.9246402307       -2.9734331681        2.1265369669
 H         -1.3201707232       -4.9588082508        1.2991629585
 H         -0.1840746669       -4.1082556601        0.1811426878
 H         -2.1623480566       -2.7990445134        2.1589231667
