  62
        -98.94281815
 C         -1.1530653311       -1.6922876790        0.1983640294
 C         -1.5995427904       -0.8236081190        1.2192347797
 C         -2.8229342702       -0.0517331385        0.9424442302
 C         -3.4218059506       -0.1905408079       -0.2528916897
 C         -4.6261194704        0.5482865327       -0.7675725392
 C         -4.1966672001        1.8042587427       -1.5454895290
 C         -4.0359828494        3.0637478924       -0.6962884588
 H         -3.6283242792        3.8420371324       -1.3457061187
 H         -5.0196483591        3.3972623927       -0.3572252985
 C         -3.1185663291        2.9190025618        0.5204719409
 H         -2.2142227294        2.3764123415        0.2350718806
 H         -2.8006753186        3.9213142216        0.8165215311
 C         -3.8049852691        2.2422733118        1.7165041110
 H         -4.8799093591        2.2120289122        1.5377432612
 H         -3.6568938786        2.8543951315        2.6089500711
 C         -3.2984905195        0.8351984315        2.0607731305
 H         -4.0791701996        0.3035760817        2.6161713706
 H         -2.4385451293        0.9166224110        2.7334289803
 H         -4.9393070102        2.0099764431       -2.3195050888
 H         -3.2506798903        1.5842978224       -2.0481257493
 H         -5.1363529709       -0.1300564170       -1.4546805092
 H         -5.3029114401        0.8003021828        0.0435009410
 O         -2.9487877312       -1.0265167979       -1.2183371700
 C         -1.8025460014       -1.7799509184       -1.0322303305
 O         -1.4770307120       -2.4742868983       -2.0142464607
 O         -0.9915308601       -0.6876682495        2.3168245096
 C          0.1293583587       -2.4744910895        0.4062341889
 C          1.1956954986       -2.0068534897       -0.5559537913
 C          2.1617825381       -2.8476607700       -1.0952312918
 C          3.1266664481       -2.3437515802       -1.9507333819
 C          3.1663442586       -0.9983497702       -2.2705542316
 C          2.2067038491       -0.1485340499       -1.7325529612
 C          1.2369369991       -0.6602661597       -0.8867166610
 H          0.4807767394        0.0042307705       -0.5007882907
 N          2.1924344595        1.2220608502       -2.0275479008
 S          1.6744673303        2.3169954501       -0.8747296305
 O          0.2427845303        2.2550853807       -0.7239236201
 O          2.2054467507        3.5844509200       -1.3305511603
 C          2.5084531105        1.8230507395        0.6229415292
 C          3.8793903306        1.9955986889        0.6636319289
 C          4.5781479007        1.5785952684        1.7837398486
 C          3.8982356607        0.9913291584        2.8406620386
 C          2.5230512006        0.8312088590        2.7878464690
 C          1.8175254605        1.2508271195        1.6703763093
 H          0.7475122105        1.1270568700        1.6110623495
 H          1.9835689207        0.3737345190        3.6019932790
 H          4.4414644708        0.6587231280        3.7110897884
 H          5.6474434107        1.7079242379        1.8288639283
 H          4.3697517505        2.4660376289       -0.1731312911
 H          2.9851847495        1.5612483400       -2.5512389010
 H          3.9207938485       -0.6101522603       -2.9372327517
 H          3.8649431777       -3.0092841804       -2.3714990822
 H          2.1534115178       -3.8978653001       -0.8534178120
 H          0.4647260290       -2.2184696899        1.4234751588
 C         -0.1257529619       -3.9659457294        0.3401834086
 C          0.6767690779       -4.9108052499        1.1827460082
 C         -0.7583254019       -4.6422734494        1.5185741586
 H         -1.4882497923       -5.4169573191        1.3381164686
 H         -0.9773773114       -4.0298301295        2.3812018788
 H          0.9323106174       -5.8762602699        0.7726708679
 H          1.4327601982       -4.4886857404        1.8274388781
 H         -0.4326465323       -4.2906621491       -0.6475001614
