  62
        -98.94234537
 C         -1.8373997123       -1.1205454888       -0.1052761405
 C         -3.1917791338       -1.2350384822        0.2898451444
 C         -4.1087924796       -0.2437819275       -0.2831045191
 C         -3.6408409982        0.6789212784       -1.1436933228
 C         -4.4568267768        1.7382144665       -1.8338427851
 C         -4.6879726380        2.9992537784       -0.9896892804
 C         -5.6746040292        2.8361768713        0.1672182281
 H         -5.9066118134        3.8381637697        0.5335708647
 H         -6.6032305308        2.4038206057       -0.2065992940
 C         -5.1455342024        1.9937957866        1.3363954245
 H         -4.0585750916        1.9129138880        1.2637229136
 H         -5.3667686051        2.4992300578        2.2790696352
 C         -5.7414817484        0.5889039333        1.4257470695
 H         -6.8122249171        0.6568908873        1.6302116095
 H         -5.2713905629        0.0693596411        2.2646415266
 C         -5.5385909245       -0.2641342876        0.1665365380
 H         -6.1940598761        0.0820903527       -0.6322585002
 H         -5.7962447041       -1.2983921630        0.4075245634
 H         -5.0712341702        3.7726526993       -1.6592738925
 H         -3.7256386754        3.3417194604       -0.6026427375
 H         -3.9021200780        2.0213963395       -2.7309952166
 H         -5.4173915212        1.3208606144       -2.1373744503
 O         -2.3330017960        0.7436321586       -1.5115099082
 C         -1.3969200988       -0.1395362902       -0.9933838817
 O         -0.2332289678        0.0526581650       -1.3946600941
 O         -3.6101981784       -2.1200801662        1.0827532284
 C         -0.8275900109       -2.1134167106        0.4405715148
 C          0.3498474827       -1.3826791345        1.0327634106
 C          0.1194703171       -0.3458280247        1.9340372446
 C          1.1647920656        0.3877759602        2.4600604560
 C          2.4697937764        0.1053839619        2.0935351094
 C          2.7113833497       -0.9397459548        1.2152205543
 C          1.6613529245       -1.6861339332        0.7008506276
 H          1.8800041766       -2.4823863325        0.0060672386
 N          4.0566051186       -1.1876752289        0.8153494574
 S          4.4286359221       -0.4068660363       -0.6383219385
 O          3.6390916931       -0.9440475344       -1.7263309443
 O          5.8606784649       -0.5444042479       -0.7998540878
 C          4.0037534196        1.2858086574       -0.3095513177
 C          2.7221495413        1.7279043314       -0.5734467456
 C          2.4019638595        3.0428798609       -0.2719615169
 C          3.3558601059        3.8824603925        0.2825271154
 C          4.6379500108        3.4199096288        0.5393753527
 C          4.9669556536        2.1072250722        0.2435856127
 H          5.9489414744        1.7005625913        0.4218552041
 H          5.3774104243        4.0757373506        0.9699398746
 H          3.0965070676        4.9033751994        0.5153484979
 H          1.4027298222        3.3970700215       -0.4704121145
 H          1.9943337407        1.0530649554       -0.9991607666
 H          4.2388057429       -2.1742888974        0.6774716276
 H          3.2966720071        0.6797140145        2.4781341407
 H          0.9633980742        1.1927128417        3.1500007096
 H         -0.9017188957       -0.1129916676        2.2043561948
 H         -1.3490698179       -2.6544602936        1.2442236266
 C         -0.4451250497       -3.1038628043       -0.6402072033
 C         -0.0333156807       -4.4991033051       -0.2782873407
 C         -1.3621476911       -4.2535524678       -0.9257373218
 H         -1.5021581991       -4.5586165822       -1.9519923138
 H         -2.2521090596       -4.3367898689       -0.3194856543
 H          0.7401232161       -4.9759287337       -0.8622055209
 H         -0.0209751684       -4.7614974961        0.7688797698
 H          0.0412100101       -2.6300644385       -1.4875545918
