  62
        -98.93171994
 C         -1.7985904472       -1.6445654304        0.5601069235
 C         -2.3996890949       -0.9504571535       -0.5146771665
 C         -3.1476429705        0.2782079100       -0.1730882765
 C         -3.2008169294        0.6857161289        1.1065079390
 C         -3.8445804907        1.9191548929        1.6888500655
 C         -5.2264177371        2.3176648461        1.1497008220
 C         -5.1995815517        3.5664912156        0.2661748331
 H         -6.1879962931        4.0307864646        0.2875301353
 H         -4.4941686567        4.2803340723        0.6967638440
 C         -4.8367427547        3.3232091650       -1.1976215967
 H         -4.7159390273        4.2983416958       -1.6752421483
 H         -5.6653107128        2.8162620390       -1.6969284345
 C         -3.5644206262        2.5055656799       -1.4279670296
 H         -3.1974153773        2.7301130416       -2.4322980724
 H         -2.7796941962        2.8084112250       -0.7339353429
 C         -3.7870103655        0.9878719139       -1.3354024783
 H         -4.8577198709        0.7659608214       -1.3444779942
 H         -3.3682013456        0.5019838081       -2.2222736196
 H         -5.8659772284        2.5296305212        2.0080276451
 H         -5.6719945635        1.4813103790        0.6140665495
 H         -3.9088287414        1.7216982197        2.7615815836
 H         -3.1443960846        2.7507877368        1.5691701392
 O         -2.5937998497       -0.0084544336        2.1112768412
 C         -1.8730450611       -1.1593599427        1.8677228707
 O         -1.3584423611       -1.6677607495        2.8840342159
 H          0.0035796855       -1.0696376615       -1.3575300172
 C          0.7921407099       -1.4827886928       -0.7452038990
 C          0.4904950855       -2.4643019202        0.1895358335
 C          1.5215714161       -2.9783855617        0.9658523250
 C          2.8178220158       -2.5153555340        0.8144919689
 C          3.1070703844       -1.5166835058       -0.0991560858
 C          2.0818306643       -0.9990549515       -0.8787822260
 N          2.3590333923        0.0828381780       -1.7608117053
 S          2.2037981542        1.5605454122       -0.9549133957
 O          1.0553066576        1.5663246229       -0.0734359036
 O          2.2185405750        2.5751881212       -1.9859506677
 C          3.7028091706        1.6370374863       -0.0026512139
 C          3.6643449753        1.3286768889        1.3428449962
 C          4.8452521997        1.3539625221        2.0683348474
 C          6.0355030633        1.6842948780        1.4380021569
 C          6.0562258110        1.9928655732        0.0857792638
 C          4.8796026230        1.9681879856       -0.6457554064
 H          4.8448302038        2.2047210406       -1.6961886786
 H          6.9836936500        2.2505720198       -0.3994864742
 H          6.9523726913        1.7017478273        2.0057358638
 H          4.8296822445        1.1131477913        3.1191390595
 H          2.7156264428        1.0753243881        1.7898645038
 H          1.7230610239        0.1003647716       -2.5484117258
 H          4.1093548898       -1.1374202506       -0.2140175233
 H          3.6076586128       -2.9247388395        1.4249907720
 H          1.2962194164       -3.7296240554        1.7085399558
 C         -0.9417809593       -2.8903904872        0.3874251135
 H         -1.0000176451       -3.4193951640        1.3518696402
 C         -1.4477031387       -3.8414200689       -0.6868550131
 C         -0.7279937404       -4.0868063709       -1.9758507752
 C         -0.7398229186       -5.1442958424       -0.9159170686
 H         -1.3308851551       -6.0332047438       -1.0750093936
 H          0.1766185565       -5.3121670195       -0.3705589686
 H          0.1936404835       -3.5558001610       -2.1563968933
 H         -1.3274528186       -4.2272694528       -2.8622877403
 H         -2.5312722559       -3.8604663519       -0.7323437470
 O         -2.3206101420       -1.3119430321       -1.7192952617
