  62
        -98.94414168
 C         -2.2014999072       -0.7790088240       -0.0296079810
 C         -2.8938195300       -0.0731883797        0.9821605628
 C         -3.6855290342        1.0805011738        0.5349625609
 C         -3.6769936130        1.4177606155       -0.7679753854
 C         -4.4780638772        2.5356541838       -1.3687088324
 C         -5.8491618335        2.0395239625       -1.8490061772
 C         -6.6056455934        1.2121775537       -0.8097159788
 H         -7.5694470651        0.9431843368       -1.2471719788
 H         -6.0628411018        0.2811309955       -0.6312124448
 C         -6.8343094933        1.9287740673        0.5284563096
 H         -6.7009191036        3.0036858568        0.4011786853
 H         -7.8676470999        1.7652406374        0.8414148654
 C         -5.9416488354        1.4397101683        1.6705394566
 H         -6.3299557879        1.8509293454        2.6061803125
 H         -6.0020158307        0.3507477529        1.7423135906
 C         -4.4623663373        1.8347632748        1.5773097876
 H         -3.9924805030        1.5923124703        2.5353341789
 H         -4.3783791591        2.9118848956        1.4179260684
 H         -6.4488280459        2.9058975617       -2.1338146644
 H         -5.7014427690        1.4210051391       -2.7371972197
 H         -3.9262952068        2.9338465990       -2.2218678437
 H         -4.6039307716        3.3244598898       -0.6295153276
 O         -2.9636607497        0.7419915826       -1.7042375903
 C         -2.2151112779       -0.3762539682       -1.3653928942
 O         -1.6190538247       -0.9046938358       -2.3214535062
 O         -2.8464612619       -0.3892975295        2.2029237586
 C         -1.3818542931       -1.9976727918        0.3516013154
 C          0.0726074082       -1.7846470885        0.0088512298
 C          0.8586584782       -2.7435206654       -0.6158498964
 C          2.1916668108       -2.4878260581       -0.8887329376
 C          2.7694856674       -1.2802600648       -0.5445973968
 C          1.9970130752       -0.3191014790        0.0948769695
 C          0.6639618766       -0.5799742614        0.3704821786
 H          0.0639476137        0.1702769374        0.8721283216
 N          2.5734027644        0.9155662736        0.4439966623
 S          4.0010487099        0.8972154060        1.3297998367
 O          4.1015744373       -0.2916742239        2.1442531896
 O          4.0263769811        2.1621364996        2.0315461778
 C          5.2766408239        0.8977971058        0.0879767624
 C          6.2236299238       -0.1073781959        0.0712716701
 C          7.2114214935       -0.0807711569       -0.9010548829
 C          7.2350102064        0.9454064282       -1.8330377582
 C          6.2780947479        1.9490215475       -1.8006714199
 C          5.2884034257        1.9286733385       -0.8310811479
 H          4.5288797183        2.6901847323       -0.7690094517
 H          6.2995725298        2.7453743758       -2.5271105040
 H          8.0037770727        0.9637450193       -2.5892997984
 H          7.9564325032       -0.8596202941       -0.9279007324
 H          6.1624560773       -0.8873110639        0.8134381608
 H          1.9168719262        1.5671946121        0.8490303911
 H          3.8047350332       -1.0754758285       -0.7628478511
 H          2.7882494955       -3.2400730479       -1.3816719773
 H          0.4271996534       -3.6908529680       -0.8939200232
 H         -1.4618090888       -2.0727044338        1.4470538919
 C         -1.9757058357       -3.2467417330       -0.2653789609
 C         -1.8312376215       -4.5717634012        0.4197821924
 C         -3.1616712848       -3.8831483296        0.3932780466
 H         -3.9430442984       -4.2892308086       -0.2314106120
 H         -3.5234047165       -3.4312647624        1.3056687809
 H         -1.7014987908       -5.4550071143       -0.1871963187
 H         -1.2918606160       -4.5950010391        1.3547180456
 H         -1.9581688367       -3.2228777818       -1.3491588630
