  62
        -98.93873232
 C          1.9853199594        1.3631080690        0.3663949306
 C          2.2141375607        0.4634603081       -0.7017724401
 C          2.9682163756       -0.7611749344       -0.3728851923
 C          3.3259892016       -0.9954118527        0.9010651911
 C          4.1268608502       -2.1418206657        1.4681847317
 C          3.8726773880       -3.5443579313        0.9032589107
 C          2.4133228478       -3.8321236280        0.5213857084
 H          2.0985727586       -4.7609939099        1.0009966922
 H          1.7693670223       -3.0339027887        0.8950961475
 C          2.2131204450       -3.9841984367       -0.9884145208
 H          3.0395790884       -4.5718670230       -1.3937900698
 H          1.2953956055       -4.5480619570       -1.1697787580
 C          2.1055611462       -2.6711784665       -1.7617031925
 H          1.1720075178       -2.1620796288       -1.5085233229
 H          2.0641837282       -2.9094002537       -2.8269566863
 C          3.2550010368       -1.6778473066       -1.5280845127
 H          3.3240677570       -1.0335067460       -2.4086469196
 H          4.2040162767       -2.1938347903       -1.4029006599
 H          4.1976973350       -4.2531101392        1.6671154380
 H          4.5086702105       -3.7082372746        0.0347176680
 H          5.1878100160       -1.8984301597        1.3560681634
 H          3.9108795638       -2.1349489737        2.5397083668
 O          3.0076865509       -0.1370859433        1.9137263059
 C          2.3517216589        1.0566621225        1.6756896105
 O          2.1451067363        1.7428247937        2.6990371656
 O          1.8325658821        0.6729149394       -1.8809127047
 C          1.2853574352        2.6910343141        0.1271359336
 C         -0.1563515953        2.4399405865       -0.2443052512
 C         -0.7162014523        2.7940293370       -1.4636162263
 C         -2.0479700706        2.5190517932       -1.7263996578
 C         -2.8464799399        1.8976449761       -0.7844529436
 C         -2.2941210449        1.5353854321        0.4385855480
 C         -0.9585129854        1.8033200046        0.6961920383
 H         -0.5250321691        1.5241004280        1.6488794859
 N         -3.0944513835        0.9193565553        1.4163403291
 S         -4.1274117495       -0.3197666810        0.9782875663
 O         -5.2534641977        0.2243650480        0.2621285581
 O         -4.4297970373       -1.0062920864        2.2135281988
 C         -3.1750617105       -1.3765046064       -0.0950998820
 C         -2.2175869295       -2.1870102013        0.4820960339
 C         -1.4457826214       -2.9985172889       -0.3321725234
 C         -1.6354939565       -2.9767717621       -1.7057849372
 C         -2.5976530369       -2.1546417958       -2.2702822103
 C         -3.3783980509       -1.3461767220       -1.4594616718
 H         -4.1450907517       -0.7035305334       -1.8592348510
 H         -2.7413315010       -2.1404236112       -3.3384909661
 H         -1.0295356364       -3.6054767816       -2.3390333278
 H         -0.6984698357       -3.6405541939        0.1060331419
 H         -2.1037959235       -2.1828286430        1.5546770188
 H         -2.5962649816        0.6898860645        2.2634534898
 H         -3.8891117578        1.6976572748       -0.9692351039
 H         -2.4721212069        2.7994677823       -2.6783955593
 H         -0.1105969508        3.2795314608       -2.2102264023
 H          1.2909158089        3.2096450877        1.0967927820
 C          2.0440452411        3.5321551871       -0.8763573717
 C          1.8491566485        5.0173979196       -0.8971660495
 C          3.1336010889        4.4368764203       -0.3883473330
 H          4.0236225769        4.5433757849       -0.9902163629
 H          3.3221816715        4.4626646495        0.6754204166
 H          1.8588353653        5.5268065399       -1.8486821717
 H          1.1646865298        5.4412360247       -0.1778235979
 H          2.2058408307        3.0236952094       -1.8187826527
