  62
        -98.94244119
 C         -1.2343075993       -1.1523949359        0.2788945730
 C         -1.9881841214       -0.4673643205        1.2658619077
 C         -2.7274685439        0.7183314796        0.8142327416
 C         -2.6075313299        1.1167804050       -0.4649326874
 C         -3.3722195491        2.2496449953       -1.0846788016
 C         -4.6974770374        1.7590752290       -1.6860085245
 C         -5.5245621549        0.8867053463       -0.7418768552
 H         -6.4468964534        0.6252970063       -1.2651576159
 H         -4.9879356906       -0.0462819624       -0.5545013716
 C         -5.8682324817        1.5508599761        0.5986819171
 H         -5.7350845838        2.6306236250        0.5224715995
 H         -6.9221386862        1.3695543504        0.8201224684
 C         -5.0654051868        1.0246061374        1.7897180007
 H         -5.1264261566       -0.0664657284        1.8196139390
 H         -5.5280622623        1.4016929523        2.7057326204
 C         -3.5855801518        1.4269114679        1.8239514317
 H         -3.1887329904        1.1474672595        2.8044267292
 H         -3.4967705742        2.5093925207        1.7132459418
 H         -4.4757585263        1.1757705169       -2.5827425949
 H         -5.2838440853        2.6299917627       -1.9846122123
 H         -3.5631139322        3.0106805983       -0.3305426896
 H         -2.7678522765        2.6813936449       -1.8837168216
 O         -1.8036920248        0.4911241151       -1.3580283513
 C         -1.0924973054       -0.6537885851       -1.0178749899
 O         -0.3948160694       -1.1012743665       -1.9440940879
 O         -2.0408314894       -0.8330462813        2.4713371169
 C         -0.4990717504       -2.4100875656        0.7087282501
 C          0.9511320100       -2.3128589675        0.3135438360
 C          1.5276060299       -3.0815937070       -0.6882177351
 C          2.8567643533       -2.9028171047       -1.0311585207
 C          3.6400118807       -1.9683943748       -0.3780755498
 C          3.0732932119       -1.1989055333        0.6295114626
 C          1.7398160324       -1.3720902949        0.9652854965
 H          1.2961412050       -0.7620067631        1.7430215151
 N          3.8691238573       -0.2444132504        1.3042604757
 S          4.3684078980        1.0754135557        0.4036971634
 O          5.1722676173        0.6122704060       -0.6969427651
 O          5.0143918015        1.9632048017        1.3434146517
 C          2.8633610014        1.8203152758       -0.1954772721
 C          2.2923163956        2.8421564721        0.5371958762
 C          1.0964465424        3.3897404991        0.1034278162
 C          0.4941215276        2.9033424377       -1.0467367633
 C          1.0754111154        1.8718136003       -1.7672263967
 C          2.2706415262        1.3185942787       -1.3364983162
 H          2.7441554275        0.5110315086       -1.8709525683
 H          0.5943270287        1.4774453982       -2.6480067172
 H         -0.4374056492        3.3297431685       -1.3837898947
 H          0.6367454023        4.1901161901        0.6608233541
 H          2.8008264530        3.1956224019        1.4200083442
 H          3.4429272822        0.0892605322        2.1580995187
 H          4.6718857301       -1.8072421862       -0.6445876728
 H          3.2892474350       -3.4992992565       -1.8201323350
 H          0.9266200563       -3.8010403161       -1.2194843430
 H         -0.5506887134       -2.3894077383        1.8100602062
 C         -1.1587608231       -3.7097742302        0.2738377606
 C         -2.6515214822       -3.8131327172        0.1851437559
 C         -1.8201321289       -3.8880750656       -1.0584439135
 H         -1.7233084438       -4.8454064977       -1.5497720762
 H         -1.8254600177       -3.0501434425       -1.7368747995
 H         -3.1298628044       -4.7121279742        0.5437366019
 H         -3.2229016807       -2.9135069372        0.3636498257
 H         -0.6401718785       -4.5750020720        0.6759878750
