  62
        -98.94088142
 C          1.8502556305        0.7239460106        0.5552615196
 C          2.3153030008       -0.0156152890       -0.5607301306
 C          3.4516325510       -0.9120540387       -0.2991470508
 C          3.9293079510       -1.0499300889        0.9498892092
 C          5.0678508412       -1.9377420487        1.3729885590
 C          6.4542105211       -1.3095370683        1.1748920492
 C          6.9217620011       -1.2093933278       -0.2776898008
 H          7.9838850310       -0.9575111975       -0.2551189307
 H          6.8290878714       -2.1850998577       -0.7558100710
 C          6.1819130008       -0.1533709278       -1.1108236305
 H          5.6655827606        0.5409098519       -0.4438081304
 H          6.9055802907        0.4319909326       -1.6823971604
 C          5.1734878210       -0.7249056378       -2.1077040907
 H          4.6847390008        0.1093197322       -2.6175747105
 H          5.6979661112       -1.3170899875       -2.8607963508
 C          4.0828332612       -1.5978856583       -1.4728421410
 H          3.3008921413       -1.7683519883       -2.2172083810
 H          4.4974518815       -2.5607947182       -1.1748732912
 H          6.4553211408       -0.3152049784        1.6276341894
 H          7.1714375412       -1.9245467982        1.7233492790
 H          4.9284865013       -2.1361128690        2.4380280589
 H          5.0150748815       -2.8842063486        0.8339610787
 O          3.3929208108       -0.3909546893        2.0119830293
 C          2.3592162405        0.5160084104        1.8395507895
 O          1.9718154104        1.0535613000        2.8970117597
 O          1.8220804408        0.0567242512       -1.7144876606
 C          0.7140134002        1.7249001003        0.4322035198
 C         -0.4206627096        1.1191926602       -0.3571674304
 C         -0.9309468797        1.6654630404       -1.5265267003
 C         -1.9728338895        1.0435048303       -2.1932454104
 C         -2.5311698092       -0.1244721600       -1.7090386408
 C         -2.0350056991       -0.6732631402       -0.5327433909
 C         -0.9967542293       -0.0455920101        0.1369283393
 H         -0.6061250292       -0.4776713202        1.0508332492
 N         -2.6023935288       -1.8539560005       -0.0244857812
 S         -4.2693054787       -1.9881255709       -0.0183743013
 O         -4.5723578485       -2.8847404313        1.0754917485
 O         -4.7293227286       -2.4076413407       -1.3187951714
 C         -4.8734379092       -0.3460620012        0.3332035091
 C         -5.6914445893        0.2965874588       -0.5733519307
 C         -6.1263729897        1.5815998586       -0.2904051004
 C         -5.7339313999        2.1998208284        0.8863470897
 C         -4.9139343697        1.5397548884        1.7889900296
 C         -4.4785134494        0.2541536186        1.5125098993
 H         -3.8445064292       -0.2868190214        2.1969624592
 H         -4.6088681699        2.0217578283        2.7040498097
 H         -6.0685500402        3.2017795983        1.1038501800
 H         -6.7657881198        2.0963751186       -0.9891474103
 H         -5.9692486392       -0.2201014510       -1.4775395909
 H         -2.2026177587       -2.1622163306        0.8490036487
 H         -3.3284657990       -0.6302319001       -2.2291677109
 H         -2.3508792396        1.4712703904       -3.1091469803
 H         -0.4946934999        2.5623292906       -1.9337071700
 H          0.3576485502        1.8741253700        1.4649845698
 C          1.1439297799        3.0930266406       -0.0761268498
 C          2.5325371897        3.6025832209        0.1673162803
 C          2.0916576599        3.2642793011       -1.2234429498
 H          1.9170041397        4.0755863213       -1.9150225896
 H          2.4817763201        2.3727967214       -1.6875111500
 H          2.6592140894        4.6417432409        0.4316520106
 H          3.2295164799        2.9401541510        0.6605942802
 H          0.3457569897        3.8237877003        0.0093181503
