  62
        -98.94355860
 C          1.9743100490        1.4284440300        0.1758610910
 C          2.1646489289        0.4621860999        1.1973506410
 C          3.1109737291       -0.6177143299        0.9021192311
 C          3.7313834193       -0.6492887198       -0.2914148388
 C          4.7665002195       -1.6505081296       -0.7276972686
 C          4.1864734498       -2.9624467696       -1.2724182288
 C          3.5798155697       -3.8900305598       -0.2193182690
 H          3.4199947600       -4.8577446498       -0.6989444391
 H          4.2984392396       -4.0425470798        0.5865406411
 C          2.2454768896       -3.4004429000        0.3601100308
 H          1.8198225796       -2.6376372400       -0.2957300193
 H          1.5402450797       -4.2333686301        0.3881550106
 C          2.3329459392       -2.8369711001        1.7784457408
 H          2.6153567992       -3.6314929901        2.4729890608
 H          1.3424428691       -2.4737267002        2.0643521106
 C          3.3241888690       -1.6776087300        1.9406085111
 H          3.1596376388       -1.2203356001        2.9195483811
 H          4.3479577891       -2.0494690798        1.8977755013
 H          3.4340762599       -2.7245198297       -2.0275601190
 H          5.0002290600       -3.4951670795       -1.7698313687
 H          5.3425380596       -1.1722720195       -1.5228783585
 H          5.4377728794       -1.8662935396        0.1043468215
 O          3.4974746094        0.2754139903       -1.2574365388
 C          2.6058801492        1.3222950801       -1.0641605589
 O          2.4887296093        2.0640692302       -2.0574315788
 O          1.5808112987        0.5124472898        2.3137259309
 C          1.0218719387        2.5740213498        0.4795085309
 C         -0.3289376411        2.2783603297       -0.1261158194
 C         -0.6110380709        2.5120629997       -1.4673382194
 C         -1.8564522907        2.1996188796       -1.9826884897
 C         -2.8418523508        1.6520512994       -1.1797462999
 C         -2.5637788410        1.3980776394        0.1569398001
 C         -1.3132510112        1.7114849295        0.6725595704
 H         -1.0926765814        1.5031377694        1.7110357904
 N         -3.5542242611        0.8471241392        0.9898291299
 S         -4.4220587408       -0.4823493509        0.4653135096
 O         -5.3256139307       -0.0832143710       -0.5836802105
 O         -5.0291254810       -1.0262725811        1.6581977595
 C         -3.2009643306       -1.6124123907       -0.1739287302
 C         -2.4655485306       -2.3517140307        0.7313517499
 C         -1.4818232604       -3.2042858105        0.2594134400
 C         -1.2433762702       -3.2943239504       -1.1035864999
 C         -1.9886714801       -2.5439055504       -1.9994248900
 C         -2.9786611503       -1.6932926706       -1.5333996602
 H         -3.5854657602       -1.1023650506       -2.1992467502
 H         -1.8013989899       -2.6177235103       -3.0586745700
 H         -0.4736064300       -3.9555803203       -1.4693318998
 H         -0.9032540905       -3.7909153005        0.9548834901
 H         -2.6848866309       -2.2612398108        1.7832316399
 H         -3.2493942713        0.7136556791        1.9431327399
 H         -3.8205586207        1.4199025793       -1.5669326001
 H         -2.0653378805        2.3896345796       -3.0246244797
 H          0.1578058992        2.9161431099       -2.1062243692
 H          0.9036583385        2.5613342697        1.5716677109
 C          1.5611222786        3.9304151399        0.0763485011
 C          0.9469809284        5.1591237398        0.6748115811
 C          2.3274121283        4.7383148799        1.0786099713
 H          3.1678013283        5.3221480201        0.7342672815
 H          2.4650215582        4.3168079299        2.0638550413
 H          0.8363946684        6.0348185498        0.0541245311
 H          0.1465520682        5.0212519396        1.3862348809
 H          1.8922391088        3.9817130000       -0.9520509188
