  62
        -98.94287510
 C         -2.3053838467       -0.6553112126       -0.0925068907
 C         -1.2778790343       -0.8771980454        0.8502520709
 C         -0.4120864134       -2.0474282977        0.6272074484
 C         -0.6390107338       -2.8316962025       -0.4413383490
 C          0.1598830150       -4.0020753484       -0.9593128362
 C          0.8036992599       -4.9623568544        0.0501013947
 C          2.3163993276       -4.7776634391        0.1975655008
 H          2.7518534458       -5.7259782499        0.5210014160
 H          2.7327894510       -4.5456604589       -0.7851782325
 C          2.7588897087       -3.7065454426        1.1924380676
 H          2.5449125794       -4.0456074226        2.2083286856
 H          3.8426532197       -3.6017514526        1.1035285039
 C          2.1179232058       -2.3319509638        0.9989849750
 H          2.0768050320       -2.0661178668       -0.0592704880
 H          2.7560332323       -1.5888248749        1.4835738386
 C          0.7112259925       -2.2273513126        1.6101099029
 H          0.5094814471       -3.0966843001        2.2401526035
 H          0.6581359953       -1.3511154446        2.2622892349
 H          0.3093098771       -4.8779096674        1.0156549301
 H          0.6291114766       -5.9764842634       -0.3139553638
 H         -0.5347464812       -4.5533009421       -1.5987567414
 H          0.9279389710       -3.5917300820       -1.6231192778
 O         -1.6793537986       -2.6108830887       -1.2966539325
 C         -2.5035534308       -1.5082335125       -1.1745254083
 O         -3.3654496767       -1.4012149376       -2.0726129219
 H         -1.0036969595        0.8788871454       -1.6071446019
 C         -1.1052495308        1.7331470047       -0.9536751661
 C         -2.1690624735        1.7961289775       -0.0620517165
 C         -2.2849836035        2.9172737410        0.7494986589
 C         -1.3374188673        3.9255532596        0.6898365101
 C         -0.2453566104        3.8263799454       -0.1532402054
 C         -0.1278353820        2.7137317717       -0.9787465087
 N          0.9724251982        2.5466154277       -1.8442193603
 S          1.9442291510        1.1942917752       -1.6494114273
 O          2.9781611586        1.3368274001       -2.6526600797
 O          1.1531268991       -0.0070681891       -1.7196101994
 C          2.6750147509        1.3853116693       -0.0324332307
 C          4.0057878150        1.7472281816        0.0547438591
 C          4.5699417896        1.9406698293        1.3051343292
 C          3.7941554435        1.7797708692        2.4434262385
 C          2.4589617556        1.4228316166        2.3379122538
 C          1.8883146098        1.2220389536        1.0900292512
 H          0.8541290869        0.9331223140        0.9913736402
 H          1.8470103517        1.2943236834        3.2166036959
 H          4.2309980735        1.9316521309        3.4178473308
 H          5.6088904313        2.2165214062        1.3876076699
 H          4.5684399099        1.8605436916       -0.8577981908
 H          1.5610333074        3.3651687268       -1.9191018901
 H          0.5101149128        4.5973141564       -0.1734387121
 H         -1.4388627815        4.7903599792        1.3275469503
 H         -3.1114827103        2.9966103080        1.4366290880
 C         -3.1217147496        0.6232562526       -0.0211333946
 H         -3.7401835138        0.6431504904       -0.9306638091
 C         -4.0287335946        0.6234266639        1.1911639772
 C         -5.3352285864        1.3566996151        1.1579779477
 C         -5.3155202035       -0.1412443436        1.1291928978
 H         -5.6376521111       -0.6809267467        2.0069522294
 H         -5.5484344579       -0.6414261923        0.2000568671
 H         -5.5954160419        1.8755661871        0.2476827325
 H         -5.6764252650        1.8444451970        2.0586112936
 H         -3.4757669452        0.5982143513        2.1228025293
 O         -1.0681268043       -0.1072441642        1.8262171550
