  62
        -98.93312122
 C          2.6425492466        1.2511973552       -0.2902572003
 C          2.5717502592       -0.0430439551       -0.8531447279
 C          3.7961291358       -0.8673665322       -0.7806217029
 C          4.8945045737       -0.3495021651       -0.2004335748
 C          6.2290357626       -1.0095306262        0.0228167587
 C          6.2047158487       -2.0127902418        1.1877563747
 C          4.9817415241       -2.9257108691        1.2258691273
 H          5.0274700410       -3.5028798744        2.1532708343
 H          4.0783427128       -2.3142896164        1.2711068054
 C          4.8699051290       -3.9132819963        0.0668002165
 H          5.7547395771       -4.5537376025        0.0557292466
 H          4.0026645794       -4.5483013626        0.2650737959
 C          4.6994287746       -3.2973870422       -1.3232597819
 H          5.6438343340       -2.9145158999       -1.7004170878
 H          4.3985399096       -4.1022680358       -2.0003358887
 C          3.6188481296       -2.2246721809       -1.4177698873
 H          3.4158969793       -2.0280447369       -2.4775248004
 H          2.6808902314       -2.6236902486       -1.0149244145
 H          6.2240314515       -1.4453623590        2.1214524654
 H          7.1121629464       -2.6171741533        1.1417794504
 H          6.5677352010       -1.4853165783       -0.8926321043
 H          6.9360792342       -0.2131004677        0.2651808859
 O          4.9147405157        0.9078440238        0.3292694973
 C          3.8065673727        1.7289582163        0.3112313886
 O          3.9766420834        2.8422408536        0.8493890604
 H         -1.0095495522        1.0893760038       -1.0360388320
 C         -0.8252383228        1.0178420076        0.0244669267
 C          0.3505638346        1.5218576706        0.5544393651
 C          0.5645034519        1.4080189440        1.9258629283
 C         -0.3718083299        0.7988009733        2.7384340685
 C         -1.5375142245        0.2782151467        2.2022649409
 C         -1.7617523481        0.3884183383        0.8372074107
 N         -2.9256686168       -0.1688231970        0.2661371793
 S         -4.4327552666        0.3131579379        0.8514560509
 O         -4.6816128028        1.7013126781        0.5218467547
 O         -4.5244625695       -0.0292245335        2.2474294777
 C         -5.4957933767       -0.7477063829       -0.1060024881
 C         -6.2657988328       -0.2191903535       -1.1234370575
 C         -7.0668999632       -1.0706933493       -1.8685707039
 C         -7.0805950724       -2.4280744823       -1.5866691058
 C         -6.3006713872       -2.9437273227       -0.5617663635
 C         -5.4993280026       -2.0979274126        0.1877915551
 H         -4.8818278308       -2.4533522015        0.9958981706
 H         -6.3145657423       -3.9999131361       -0.3458161439
 H         -7.7040742688       -3.0886329153       -2.1683451805
 H         -7.6754528056       -0.6729873093       -2.6647492889
 H         -6.2266272255        0.8430110781       -1.3043805028
 H         -2.9224197597       -0.0611069371       -0.7403040551
 H         -2.2749941887       -0.1974396966        2.8272168788
 H         -0.1919373599        0.7201718680        3.8003635627
 H          1.4816633894        1.8025136318        2.3430235923
 C          1.4262854679        2.1622279467       -0.2892023616
 H          1.7432253590        3.0873281719        0.2123534794
 C          0.9934113396        2.4968576127       -1.7004838960
 C          0.1122448200        3.6842066817       -1.9435905945
 C          1.5507096538        3.7193003061       -2.3625989121
 H          1.7825124524        3.6740414140       -3.4161372045
 H          2.2371836503        4.3266477434       -1.7907912123
 H         -0.6442357095        3.6194749413       -2.7110593395
 H         -0.1824417490        4.2700932603       -1.0858008599
 H          0.8516487740        1.6189058386       -2.3192498146
 O          1.5356256153       -0.5073115146       -1.3977054754
