  62
        -98.93666088
 C          1.7845582221        0.8095808880        0.7805717148
 C          2.1241463796       -0.3236072823        0.0042974660
 C          3.5628566753       -0.6141203875       -0.1153597093
 C          4.4486270931        0.1787231581        0.5148829962
 C          5.9437180393        0.0616915737        0.4236387336
 C          6.4359572473        0.6427581162       -0.9172878498
 C          7.0623242235       -0.3864775227       -1.8582636195
 H          7.1702057448        0.0874840905       -2.8361827296
 H          8.0637502952       -0.6328958265       -1.4992544021
 C          6.2885572166       -1.6981687713       -2.0230992057
 H          6.7000845492       -2.2021629542       -2.9002204875
 H          6.4838946317       -2.3499841921       -1.1702854731
 C          4.7704015195       -1.5645823341       -2.2001230755
 H          4.4477803039       -2.3025466540       -2.9376122770
 H          4.5139986170       -0.5836279796       -2.6008280048
 C          3.9503110626       -1.8225672298       -0.9219528146
 H          2.9993314043       -2.2850552174       -1.2040245277
 H          4.4829101821       -2.5332511181       -0.2836374882
 H          7.1729129120        1.4242929092       -0.7266632018
 H          5.5898186306        1.1229917072       -1.4131031655
 H          6.2375370386       -0.9810915705        0.5203769730
 H          6.3648977381        0.6226145315        1.2581106961
 O          4.0798777491        1.2496678831        1.2650042187
 C          2.7466332392        1.5931296451        1.4167287707
 O          2.5500445387        2.5940773780        2.1347536950
 O          1.2711886175       -1.0586955280       -0.5594463122
 C          0.3290411693        1.2063095062        0.9490157206
 C         -0.4694477157        0.0590247290        1.5174551466
 C          0.0197888283       -0.6093962581        2.6371347991
 C         -0.6827837251       -1.6580127260        3.1968115064
 C         -1.8901152612       -2.0614836796        2.6539655770
 C         -2.3949244667       -1.3937833447        1.5451249165
 C         -1.6898852128       -0.3336936039        0.9900496067
 H         -2.0953202807        0.1646694886        0.1257656909
 N         -3.6410792221       -1.7486990590        1.0126712588
 S         -3.9779356531       -1.6264872893       -0.6195167595
 O         -5.1649613168       -2.4390342795       -0.7914668214
 O         -2.8489900809       -1.9784609760       -1.4468881968
 C         -4.4219401373        0.0805172768       -0.8639808086
 C         -4.0346379423        0.7104393200       -2.0299174557
 C         -4.4271221785        2.0223655177       -2.2469078180
 C         -5.1957560696        2.6784264673       -1.2977037471
 C         -5.5755800591        2.0315525696       -0.1315332969
 C         -5.1916642659        0.7184414697        0.0886783166
 H         -5.4708917564        0.1850199963        0.9816357803
 H         -6.1708344746        2.5461845610        0.6053375296
 H         -5.4971525638        3.6998971995       -1.4680276805
 H         -4.1317187590        2.5259374195       -3.1539826882
 H         -3.4251911773        0.1667333607       -2.7346434058
 H         -4.0653098005       -2.5678050064        1.4222633544
 H         -2.4372535213       -2.8860052322        3.0851601153
 H         -0.2861176873       -2.1710267357        4.0601697081
 H          0.9667693208       -0.2979982649        3.0574328872
 H          0.3240861679        2.0210752874        1.6883520425
 C         -0.2229201065        1.7369195467       -0.3578679611
 C         -1.2941993641        2.7846495582       -0.3487866688
 C          0.1017650797        3.1436153965       -0.7584379301
 H          0.2990760269        3.3503449693       -1.7995553128
 H          0.7057737226        3.7238471948       -0.0758302006
 H         -2.0600308037        2.7467718151       -1.1085142813
 H         -1.6435822376        3.1303249755        0.6121846972
 H         -0.2437571327        0.9841614765       -1.1386513087
