  62
        -98.94633844
 C         -1.7887077525       -0.7426524245        0.2250606833
 C         -3.0836802459       -0.9904217178        0.7396409625
 C         -4.0051734895        0.1533451085        0.7355837372
 C         -3.5744018370        1.3433880689        0.2780132267
 C         -4.4236278404        2.5755875907        0.1657660361
 C         -5.0933579061        2.6640373024       -1.2127753330
 C         -5.7946589943        1.3755664395       -1.6430074694
 H         -6.2554588852        1.5650942532       -2.6149571752
 H         -5.0459505936        0.5936858382       -1.7903919040
 C         -6.8624129729        0.8750798034       -0.6601676590
 H         -7.1576253251        1.6834779659        0.0097325623
 H         -7.7495641551        0.5829661332       -1.2260277093
 C         -6.4423099763       -0.3408846766        0.1676683100
 H         -6.0583055452       -1.1203696492       -0.4953908008
 H         -7.3324588133       -0.7407070988        0.6606522503
 C         -5.3956836210       -0.0762845007        1.2573227928
 H         -5.7175497677        0.7599953967        1.8811600242
 H         -5.3363607589       -0.9705617871        1.8846961605
 H         -5.8140366769        3.4835986650       -1.1945799473
 H         -4.3278887207        2.9006946233       -1.9554312726
 H         -5.1798902359        2.5622458359        0.9481357363
 H         -3.7840426983        3.4485790899        0.3054056124
 O         -2.3144913029        1.5492306695       -0.1834420816
 C         -1.3936201750        0.5130828203       -0.2337567780
 O         -0.2822790679        0.8362738932       -0.6924875996
 O         -3.4482100284       -2.1117665429        1.1851350138
 C         -0.7902077895       -1.8842848714        0.1678669782
 C          0.4555266846       -1.5270436031        0.9389021434
 C          0.3272696916       -1.1130046096        2.2633516830
 C          1.4380461663       -0.7754624902        3.0107046728
 C          2.7031191076       -0.8357529111        2.4509899080
 C          2.8433182485       -1.2532912365        1.1342049578
 C          1.7249297684       -1.6063839616        0.3893303997
 H          1.8683114371       -1.9208829632       -0.6303134978
 N          4.1174515617       -1.3509008190        0.5418729404
 S          4.4439408436       -0.4898956253       -0.8573355518
 O          3.5536459958       -0.9040913917       -1.9092579487
 O          5.8556522190       -0.7018366334       -1.0947189396
 C          4.1699173880        1.2149600086       -0.4093775271
 C          2.8814297498        1.7063923863       -0.3493361359
 C          2.6900578361        3.0154000957        0.0672847697
 C          3.7759739776        3.8033712149        0.4146072759
 C          5.0637975952        3.2923230222        0.3487087795
 C          5.2639825502        1.9849622795       -0.0619192304
 H          6.2464024338        1.5464890222       -0.1326988850
 H          5.9081386802        3.9066699398        0.6171545239
 H          3.6167630453        4.8205080992        0.7367961761
 H          1.6836828441        3.4005321452        0.1152403115
 H          2.0420086223        1.0866093866       -0.6230176807
 H          4.8774421096       -1.2164305485        1.1946770814
 H          3.5734144904       -0.5665618712        3.0302526272
 H          1.3201860361       -0.4564232572        4.0352358608
 H         -0.6620464913       -1.0591294616        2.6973954642
 H         -1.2800900506       -2.7265072906        0.6792790138
 C         -0.5250328842       -2.2799057968       -1.2694050647
 C         -0.1177407648       -3.6833006519       -1.6008287239
 C         -1.4883505127       -3.1957624608       -1.9604886052
 H         -1.7171607518       -3.0151453829       -3.0002177786
 H         -2.3277933945       -3.5576399016       -1.3845656619
 H          0.5999165202       -3.8356733165       -2.3930931115
 H         -0.0269470461       -4.3831722197       -0.7838673916
 H         -0.0951383144       -1.4748976799       -1.8562856569
