  62
        -98.94515056
 C          1.5332611093        0.8047943720        0.0453961143
 C          2.8082006479        1.4149525268        0.0976184566
 C          3.9074548560        0.5552680197        0.5515063845
 C          3.6555888758       -0.7174398654        0.9088422000
 C          4.6665853064       -1.7090584409        1.4180435584
 C          5.4448909800       -2.4330907861        0.3109678321
 C          6.4838458422       -1.5802655399       -0.4181643219
 H          7.1371233456       -1.1016924199        0.3121457843
 H          7.1002409354       -2.2609840388       -1.0088358015
 C          5.8878948366       -0.5180655174       -1.3526206054
 H          6.4132493160       -0.5388835613       -2.3101479769
 H          4.8417110389       -0.7572150023       -1.5565547728
 C          5.9722763967        0.9128261171       -0.8212295152
 H          7.0194542138        1.2124607383       -0.7383841774
 H          5.4890520640        1.5756602119       -1.5436908383
 C          5.2952089964        1.1216402761        0.5397266477
 H          5.2172779021        2.1963413066        0.7224716982
 H          5.8967999355        0.6754891903        1.3314864042
 H          5.9605631286       -3.2774443385        0.7742136529
 H          4.7316657060       -2.8350198925       -0.4121417219
 H          5.3662666024       -1.2085646691        2.0880328756
 H          4.1093979200       -2.4537063727        1.9904060878
 O          2.4093656323       -1.2590578359        0.8673717817
 C          1.3199023927       -0.5219211353        0.4219422004
 O          0.2442244960       -1.1461155545        0.4159777041
 O          3.0157656091        2.6199753214       -0.2099510730
 C          0.3443321837        1.6143237281       -0.4370536153
 C         -0.7482588672        1.6034383745        0.6021744117
 C         -0.4260413563        1.8848448994        1.9278678771
 C         -1.3950577118        1.8580847998        2.9110831895
 C         -2.7053741583        1.5400285755        2.5976926882
 C         -3.0407574687        1.2749767213        1.2761448760
 C         -2.0675971609        1.3223973966        0.2864940762
 H         -2.3609730477        1.1384424770       -0.7323687342
 N         -4.3613484513        0.9708877954        0.9239862484
 S         -4.7112506927        0.0037057648       -0.3889514993
 O         -4.5518720704        0.7521306132       -1.6111301801
 O         -6.0512878693       -0.4755543851       -0.1219082666
 C         -3.5654976979       -1.3619621216       -0.3505239308
 C         -2.8225472031       -1.6547093814       -1.4748269495
 C         -1.9542641703       -2.7328177483       -1.4437398539
 C         -1.8421679274       -3.4943618467       -0.2926216221
 C         -2.5972094469       -3.1893162603        0.8281234490
 C         -3.4695510972       -2.1146075410        0.8019418496
 H         -4.0724229371       -1.8573709504        1.6579541551
 H         -2.5016395610       -3.7817731621        1.7239604187
 H         -1.1561203750       -4.3261237664       -0.2669992944
 H         -1.3602116774       -2.9686916079       -2.3127331969
 H         -2.9338677235       -1.0314562620       -2.3485370480
 H         -4.9928692156        0.8171745023        1.6953294527
 H         -3.4611444710        1.5032760595        3.3671058899
 H         -1.1281732310        2.0757379241        3.9343854977
 H          0.6001764322        2.1182028411        2.1774751624
 H          0.7118004251        2.6456271797       -0.5471877422
 C         -0.1117657240        1.1089586813       -1.7899013422
 C         -0.7924302399        2.0315724856       -2.7548104715
 C          0.6058479685        1.5640446276       -3.0236277066
 H          0.7699895854        0.8519090828       -3.8184316980
 H          1.4140554810        2.2694266151       -2.8958265187
 H         -1.5974078481        1.6441621595       -3.3618110696
 H         -0.9341192157        3.0573582674       -2.4492980634
 H         -0.4388120274        0.0751914547       -1.7531472960
