  62
        -98.94187285
 C         -1.1894503444       -1.0009481579        0.4197216925
 C         -2.0446012550       -0.7082396953       -0.6659457448
 C         -3.0253928680        0.3779553508       -0.4656672049
 C         -3.0197597370        1.0520609820        0.6993536788
 C         -3.9380344894        2.1617093995        1.1378232344
 C         -5.3322260829        1.6542288811        1.5418615537
 C         -5.9321955586        0.6072424510        0.6069299131
 H         -5.2516578615       -0.2433002778        0.5383786478
 H         -6.8580197284        0.2470604647        1.0630500663
 C         -6.2663873198        1.1041293000       -0.7974073687
 H         -6.9816062091        1.9265874201       -0.7256125979
 H         -6.7568746324        0.2820160392       -1.3246961540
 C         -5.0784696735        1.5679485285       -1.6427681280
 H         -5.4304536785        1.6645880570       -2.6741518098
 H         -4.7423392336        2.5559046130       -1.3390881519
 C         -3.9006127898        0.5988723433       -1.6759495090
 H         -4.2604854918       -0.3929670327       -1.9727569669
 H         -3.2174127851        0.9086416878       -2.4766831892
 H         -6.0036255918        2.5116115397        1.6122144979
 H         -5.2517810475        1.2058940693        2.5351143547
 H         -3.4705991793        2.6291554918        2.0076322182
 H         -4.0071325691        2.9157654457        0.3591551360
 O         -2.1449657423        0.7617367674        1.7047215822
 C         -1.2070536792       -0.2440235657        1.5894915654
 O         -0.4538424412       -0.3677352853        2.5784076018
 H          0.7867842415        0.3286955077       -0.2985878096
 C          1.2443819710       -0.4268549788       -0.9179970219
 C          0.8538865705       -1.7514918909       -0.7828902678
 C          1.4343132980       -2.6997703837       -1.6162382389
 C          2.3698767878       -2.3182051419       -2.5626349864
 C          2.7646393724       -0.9979818664       -2.6840801127
 C          2.1926501706       -0.0428107753       -1.8515447662
 N          2.5570545946        1.3096424582       -1.9321769644
 S          2.6257791786        2.2324456288       -0.5392171412
 O          1.2980008973        2.5562423000       -0.0796232334
 O          3.4563625578        3.3602344072       -0.9059914934
 C          3.4919954840        1.2112751364        0.6398366875
 C          4.8425893649        1.0111480741        0.4225340921
 C          5.5488470939        0.1865675157        1.2815722460
 C          4.8942920644       -0.4286683038        2.3385037228
 C          3.5413977364       -0.2139065473        2.5463531087
 C          2.8289533993        0.6140275600        1.6917744941
 H          1.7743643902        0.7884650946        1.8400935258
 H          3.0219609660       -0.6863957023        3.3650282127
 H          5.4404374859       -1.0762559113        3.0060607624
 H          6.6028683270        0.0237301427        1.1248060515
 H          5.3165689675        1.5175253611       -0.4025844139
 H          3.3221808656        1.5114309651       -2.5586008745
 H          3.4979240360       -0.7051691157       -3.4194942191
 H          2.8056627996       -3.0628633321       -3.2110878520
 H          1.1486806680       -3.7352620166       -1.5297811923
 C         -0.1451522933       -2.0940804901        0.2973016737
 H          0.3965665529       -2.1002998068        1.2557802838
 C         -0.8034631869       -3.4443791318        0.1014975050
 C         -0.1704016926       -4.6838038162        0.6569108432
 C         -1.4109584793       -4.1291097065        1.2878552714
 H         -2.3420877190       -4.6596049077        1.1568771096
 H         -1.3230893860       -3.6332095985        2.2439982539
 H          0.7600809053       -4.5742878751        1.1931469750
 H         -0.2521112075       -5.6010380438        0.0933659824
 H         -1.3321928299       -3.5145778568       -0.8418080733
 O         -2.0040081140       -1.3263320648       -1.7628240119
