  62
        -98.94224291
 C         -1.2780925710       -0.8574967937        0.4375651287
 C         -1.8540267426       -0.5805925922       -0.8261873483
 C         -2.7304485950        0.6001103260       -0.8824321305
 C         -2.9093611811        1.3450422243        0.2238156728
 C         -3.8046925306        2.5461122630        0.3147275197
 C         -5.2197236023        2.1513267284        0.7597600318
 C         -5.8125362045        0.9851526558       -0.0309878669
 H         -5.2355930091        0.0816081973        0.1789764415
 H         -6.8231108805        0.8161387129        0.3470391855
 C         -5.8657097292        1.2093930461       -1.5486962207
 H         -5.7684911807        2.2729083352       -1.7703420310
 H         -6.8435253122        0.8906787844       -1.9159248247
 C         -4.8163852789        0.4285959154       -2.3424183173
 H         -4.8486268039       -0.6252545910       -2.0545667094
 H         -5.0794902738        0.4859878051       -3.4020999645
 C         -3.3705613469        0.9217291392       -2.2035378053
 H         -2.7700917027        0.4069933390       -2.9599130140
 H         -3.3274670625        1.9945829657       -2.4040978149
 H         -5.8676325027        3.0246099942        0.6647436255
 H         -5.1848051881        1.8671486508        1.8139615290
 H         -3.3826927727        3.2352767235        1.0481954210
 H         -3.8420719787        3.0406997626       -0.6540383589
 O         -2.3218732508        1.0590464760        1.4132297195
 C         -1.5058929534       -0.0530820786        1.5545173711
 O         -1.0460008893       -0.2115683254        2.7013563218
 H          0.7111932597        0.1748953400       -0.5251732346
 C          1.3124563385       -0.7061356144       -0.7128068497
 C          0.8945870423       -1.9347725076       -0.2238122960
 C          1.6958773971       -3.0446885180       -0.4741394275
 C          2.8766104530       -2.9221572454       -1.1850788447
 C          3.2854199708       -1.6926633646       -1.6724106522
 C          2.4856773074       -0.5844929485       -1.4426376360
 N          2.9116568990        0.6861597261       -1.9125170079
 S          4.0141899978        1.4163832865       -0.8799673120
 O          4.1726310049        2.7727552760       -1.3529516073
 O          5.2030736782        0.6051456569       -0.8410983724
 C          3.1990637045        1.3995091707        0.7057218159
 C          2.3412296128        2.4338922301        1.0226015314
 C          1.6081439967        2.3614580273        2.1959881775
 C          1.7334260837        1.2548043109        3.0217802523
 C          2.5979095236        0.2241477754        2.6875108190
 C          3.3363677695        0.2912337313        1.5172208954
 H          4.0137853383       -0.4930044344        1.2198535424
 H          2.6844666266       -0.6376566967        3.3292668512
 H          1.1387825379        1.1853061899        3.9183668459
 H          0.9292526055        3.1577364812        2.4575419028
 H          2.2684491277        3.2759563614        0.3519515329
 H          2.1400124921        1.3238912660       -2.0551770528
 H          4.2091971624       -1.5718230548       -2.2138506326
 H          3.4872518968       -3.7942094186       -1.3620327275
 H          1.3926183243       -4.0103249885       -0.1025645416
 C         -0.3558818520       -2.0448874999        0.6178005162
 H         -0.0439655050       -2.0246890692        1.6731623645
 C         -1.1032730481       -3.3409144786        0.3581123049
 C         -0.8586846802       -4.5507711227        1.2075907072
 C         -2.1394020547       -3.7857659540        1.3451435350
 H         -3.0521128598       -4.2268314994        0.9735424235
 H         -2.2771486065       -3.1742401855        2.2254761191
 H         -0.1390590179       -4.4678062779        2.0082635639
 H         -0.8924686038       -5.5234810098        0.7402159804
 H         -1.3206307578       -3.4898972687       -0.6931541073
 O         -1.6410772264       -1.2704658343       -1.8573860660
