  62
        -98.94761007
 C          2.5301993353       -0.2860546286       -0.0081927887
 C          2.2216325015       -1.2971375005        0.9315657884
 C          1.5872650579       -2.5067385282        0.3938967660
 C          1.3571239502       -2.5949751699       -0.9287910085
 C          0.7168555139       -3.7690415526       -1.6117697413
 C         -0.8002970777       -3.5923368579       -1.7505891384
 C         -1.5059913736       -3.2044858980       -0.4509256863
 H         -1.2198949006       -2.1853276511       -0.1797532395
 H         -2.5784474876       -3.1822006964       -0.6607879892
 C         -1.2385860558       -4.1413314630        0.7347786617
 H         -2.1832027077       -4.3216182246        1.2520005101
 H         -0.8740513338       -5.1044806814        0.3744219714
 C         -0.2647615775       -3.5814762324        1.7739266087
 H         -0.5536769334       -2.5558290186        2.0215599547
 H         -0.3563484183       -4.1792897300        2.6850963705
 C          1.2159025448       -3.5862710689        1.3707168781
 H          1.8082807944       -3.3913659125        2.2697008105
 H          1.4905793235       -4.5706380162        0.9847754524
 H         -0.9912331043       -2.8031463991       -2.4815396321
 H         -1.2204725504       -4.5254853397       -2.1319304260
 H          1.1529441908       -3.8599493212       -2.6084997742
 H          0.9373743301       -4.6722190647       -1.0454530916
 O          1.6806301313       -1.6094293052       -1.8044524257
 C          2.2242665682       -0.4135423320       -1.3631371464
 O          2.4122482807        0.4284221901       -2.2630405139
 O          2.4736876782       -1.1937412141        2.1644098473
 C          3.0894769465        1.0354325558        0.4911415561
 C          2.0648201165        2.1141214059        0.2342986362
 C          2.3567234398        3.3567662286       -0.3118644477
 C          1.3395681268        4.2605983428       -0.5707574201
 C          0.0187700813        3.9405287247       -0.3148980143
 C         -0.2799198921        2.7060806020        0.2510605952
 C          0.7434470825        1.8236026612        0.5471420888
 H          0.4996572845        0.8701396160        0.9927727617
 N         -1.6041585796        2.3210275007        0.5340531174
 S         -1.9678259066        0.6886388003        0.2575876949
 O         -1.6285019030       -0.0648995475        1.4389296719
 O         -1.3756313857        0.2539320539       -0.9863296344
 C         -3.7423427507        0.7724581781        0.1033739467
 C         -4.3143689971        0.7876181791       -1.1543464124
 C         -5.6928302614        0.8866037781       -1.2628396080
 C         -6.4706238086        0.9718649200       -0.1178933793
 C         -5.8819242464        0.9539105825        1.1380124296
 C         -4.5046140493        0.8534906275        1.2534954556
 H         -4.0019451206        0.8253611009        2.2061283335
 H         -6.4899413041        1.0167346454        2.0259287007
 H         -7.5427815320        1.0493872259       -0.2050235906
 H         -6.1527115940        0.8965744049       -2.2378435968
 H         -3.6681616392        0.7110461867       -2.0143505576
 H         -2.2863466536        2.9277465657        0.0986287320
 H         -0.7736460511        4.6344104137       -0.5512347208
 H          1.5783111977        5.2211445502       -1.0018209512
 H          3.3764180396        3.6114260559       -0.5505349180
 H          3.1980286838        0.9143978800        1.5798750478
 C          4.4475585645        1.3268931958       -0.1087209739
 C          5.4394917952        2.1624816695        0.6427167352
 C          5.6594661337        0.6876079112        0.4978852818
 H          6.4428973522        0.3423099205       -0.1596337376
 H          5.5059983924        0.0582244595        1.3624276408
 H          6.0775780573        2.8309921818        0.0848492427
 H          5.1446393367        2.5368382799        1.6113570027
 H          4.4138658005        1.4132921927       -1.1887765976
