  62
        -98.94355065
 C         -0.1523331153       -1.9021754197       -0.1562545704
 C         -1.3146905559       -2.1552135073        0.6044264494
 C         -2.5420595442       -1.4610213040        0.1819245998
 C         -2.4963392820       -0.6176421234       -0.8662150697
 C         -3.5942216000        0.1814633997       -1.5363103892
 C         -4.8984392693        0.4845796925       -0.8029727091
 C         -4.7498570572        1.3599922513        0.4399870515
 H         -4.4205632547        2.3565431007        0.1339292821
 H         -5.7360196570        1.4637676335        0.8988426115
 C         -3.7695639785        0.8542886282        1.4966719012
 H         -2.7441461384        0.9073706959        1.1223080313
 H         -3.8173389969        1.5367709778        2.3505065816
 C         -4.0355245820       -0.5578146014        2.0172561803
 H         -5.0679051823       -0.6334199791        2.3651606602
 H         -3.3791374325       -0.7104970036        2.8784140402
 C         -3.7635462148       -1.7002791115        1.0206892896
 H         -3.5687288671       -2.6096468423        1.5968617590
 H         -4.6286720053       -1.8922478489        0.3897341094
 H         -5.5338896079        1.0241966945       -1.5107501188
 H         -5.4172270316       -0.4356734264       -0.5515526197
 H         -3.1287391377        1.1252978788       -1.8336205786
 H         -3.8356541113       -0.3531778291       -2.4617545296
 O         -1.3473057115       -0.4014805658       -1.5693683395
 C         -0.1523960830       -1.0141981690       -1.2305878498
 O          0.8127222478       -0.6935899509       -1.9480629995
 H          0.8001806591       -0.0987252429        1.2537255608
 C          1.8411162486       -0.3003849154        1.0498256908
 C          2.2171786656       -1.5276945360        0.5217975100
 C          3.5684543851       -1.7628364492        0.2943452599
 C          4.5081581875       -0.7871946117        0.5773370606
 C          4.1241297505        0.4462815790        1.0710707714
 C          2.7752234411        0.6900189322        1.3035682714
 N          2.3366516041        1.9312463729        1.7933420922
 S          0.8981898758        2.5894426068        1.2696010326
 O          0.9911015792        3.9837456163        1.6563145634
 O         -0.2217922760        1.8704299892        1.8248812020
 C          0.8557465557        2.5012341781       -0.5124086175
 C          2.0180292256        2.4812293957       -1.2547771975
 C          1.9287221257        2.4792397868       -2.6371470275
 C          0.6886500958        2.5144234102       -3.2518946175
 C         -0.4693607941        2.5481755326       -2.4930453875
 C         -0.3866680942        2.5386636115       -1.1110815775
 H         -1.2624627042        2.5450335833       -0.4799821076
 H         -1.4342009240        2.5712005553       -2.9749474276
 H          0.6222351859        2.5073261211       -4.3284045775
 H          2.8288989057        2.4430028549       -3.2292345474
 H          2.9770233355        2.4493227930       -0.7643285074
 H          3.0525681159        2.6362330211        1.8911198027
 H          4.8558754524        1.2128706570        1.2764355919
 H          5.5538870270       -0.9849561441        0.3981167405
 H          3.8848064527       -2.7116570097       -0.1070719007
 C          1.1533771131       -2.5609646532        0.2402862093
 H          0.9397890817       -3.0988818332        1.1769752789
 C          1.5764178807       -3.5674885735       -0.8122617313
 C          2.2710694675       -4.8368347555       -0.4210002421
 C          0.8494804974       -4.8754452117       -0.8922722522
 H          0.6362419465       -5.2892520505       -1.8663376725
 H          0.0719022469       -5.0524640502       -0.1633474824
 H          2.4574211770       -5.0036323966        0.6293263178
 H          3.0356900466       -5.2290085470       -1.0746372523
 H          1.8584118819       -3.0935659136       -1.7458069810
 O         -1.3317315879       -2.9380839079        1.5945903289
