  62
        -98.93914771
 C          0.9172895020        1.5727716502        0.0195953131
 C          1.5216792118        0.7320653825        0.9886775122
 C          2.4734560214       -0.2738941425        0.4952024846
 C          2.7013350219       -0.3585963835       -0.8277770651
 C          3.6781277996       -1.2899967265       -1.4877427510
 C          5.1159522372       -0.7593993208       -1.3172096248
 C          6.0168977961       -1.6470583703       -0.4580957218
 H          6.3179326672       -2.5182829450       -1.0436336709
 H          6.9188508132       -1.0747366473       -0.2311099892
 C          5.4022828670       -2.1512382669        0.8509895122
 H          4.7444653479       -2.9969688169        0.6451752551
 H          6.2233085804       -2.5359363556        1.4596480355
 C          4.6258831210       -1.1120156329        1.6697540123
 H          4.9639439383       -0.1037175611        1.4300414166
 H          4.8466100659       -1.2791074032        2.7259120105
 C          3.0953798100       -1.1862380199        1.5166332550
 H          2.7971265496       -2.2188282533        1.3130471632
 H          2.6396844389       -0.8904351022        2.4663920783
 H          5.5802752243       -0.6471755104       -2.2981455268
 H          5.0617421590        0.2398939913       -0.8800714900
 H          3.5815937463       -2.2852543476       -1.0588429597
 H          3.4114569702       -1.3409394408       -2.5439816327
 O          2.1089013806        0.4644575472       -1.7287271887
 C          1.1941541099        1.4372084308       -1.3422799247
 O          0.7324141361        2.0895950074       -2.2980689723
 H         -1.2300322527        0.8196518135       -1.2274965909
 C         -1.9076745390        1.1214284871       -0.4444422737
 C         -1.4997158389        2.0197369448        0.5289757233
 C         -2.4152131699        2.4029064313        1.5040091631
 C         -3.7021989542        1.8979391036        1.5010781270
 C         -4.0939228078        0.9757643482        0.5464357087
 C         -3.1862173159        0.5817784945       -0.4282967740
 N         -3.5294989670       -0.3813123352       -1.3963154502
 S         -2.5019951731       -1.6942408050       -1.5738477023
 O         -1.2933944869       -1.3083184309       -2.2550484149
 O         -3.3113674030       -2.6983603711       -2.2311550364
 C         -2.1491363576       -2.1914153905        0.1011864809
 C         -3.0808980561       -2.9587772782        0.7735975178
 C         -2.8566459964       -3.2702006578        2.1045373584
 C         -1.7208326794       -2.7946379784        2.7433760304
 C         -0.7953708143       -2.0256729841        2.0552557517
 C         -1.0076449758       -1.7246290423        0.7193346470
 H         -0.3023477287       -1.1325930618        0.1568524155
 H          0.0824255162       -1.6352799666        2.5457528260
 H         -1.5523141302       -3.0240696449        3.7836287662
 H         -3.5699410088       -3.8739278881        2.6420470448
 H         -3.9497093550       -3.3074962485        0.2390723424
 H         -4.4867969168       -0.6996892589       -1.3349365370
 H         -5.0908122768        0.5624316211        0.5543908792
 H         -4.4027912213        2.2085784515        2.2606052583
 H         -2.1089784906        3.0954421422        2.2728208329
 C         -0.0931318546        2.5773409227        0.5394643351
 H          0.1814667639        2.7490047006        1.5901118571
 C         -0.0647161146        3.9097926184       -0.1850042380
 C         -0.4024004830        5.1688819942        0.5532361935
 C          1.0121796282        4.9003094939        0.1377789613
 H          1.4389015325        5.4749892949       -0.6702121304
 H          1.7252334973        4.6284763110        0.9026094984
 H         -0.9548357664        5.9352573014        0.0318865083
 H         -0.6383512655        5.0930289709        1.6034296634
 H         -0.3716929776        3.8348135667       -1.2205411825
 O          1.2696268825        0.8179714274        2.2210696087
