  62
        -98.93977650
 C          2.2746518432       -0.9116183179       -0.6454315063
 C          3.4090134815       -0.8748174753        0.2027224302
 C          4.3909413674        0.1792986187       -0.0877648791
 C          4.1858602073        1.0327619448       -1.1059747900
 C          5.1057535610        2.1444065912       -1.5329256237
 C          4.9344258528        3.4416560851       -0.7306356828
 C          5.4694505414        3.3971332451        0.7012965553
 H          6.4989607635        3.0380228007        0.6919085267
 H          5.4859482859        4.4251617308        1.0685820350
 C          4.6324144176        2.5428006651        1.6636371435
 H          4.4759183680        3.0912258275        2.5952826268
 H          3.6456927351        2.3644942333        1.2290808208
 C          5.2624251742        1.1988077058        2.0289283142
 H          4.5684193750        0.6614835119        2.6799128006
 H          6.1868768398        1.3667874948        2.5857705624
 C          5.5742039095        0.3005034334        0.8251835750
 H          6.4358218081        0.6855964487        0.2806877630
 H          5.8107560551       -0.6995941479        1.1960577324
 H          3.8740472961        3.7049895484       -0.7160439463
 H          5.4649581543        4.2298119293       -1.2699725539
 H          4.8737562747        2.3535260136       -2.5794628898
 H          6.1409262913        1.8081762601       -1.4668240431
 O          3.0872157567        0.9613595731       -1.9051926162
 C          2.1113302797        0.0038865994       -1.6900415292
 O          1.1613422492        0.0589814740       -2.4990803478
 O          3.6209184271       -1.6713424415        1.1541131860
 C          1.1543368466       -1.9290066862       -0.4926132403
 C          0.2072341072       -1.5290931526        0.6141752017
 C          0.6002322725       -1.5318291584        1.9486953689
 C         -0.2896540935       -1.1573141857        2.9383689707
 C         -1.5811879807       -0.7763547460        2.6206719895
 C         -1.9859941337       -0.7756835838        1.2906222490
 C         -1.0904771259       -1.1510871849        0.2989587398
 H         -1.4079737285       -1.1267497121       -0.7330886703
 N         -3.3086969610       -0.4384086868        0.9527583608
 S         -3.6171204680        0.3711309527       -0.4958748290
 O         -3.5490590095       -0.5748383209       -1.5808546152
 O         -2.7779675413        1.5445363153       -0.6002337375
 C         -5.3158850239        0.8427697469       -0.2258592458
 C         -5.6182910102        2.1404613064        0.1398997347
 C         -6.9421713813        2.4805814465        0.3714341309
 C         -7.9349529926        1.5218715636        0.2371448666
 C         -7.6160264437        0.2231714767       -0.1315763682
 C         -6.2950273807       -0.1228985182       -0.3662997494
 H         -6.0001008433       -1.1155078763       -0.6639270069
 H         -8.3907150189       -0.5189113601       -0.2378645376
 H         -8.9640758709        1.7892043240        0.4179935580
 H         -7.1931691072        3.4900387695        0.6547222061
 H         -4.8137162868        2.8532967469        0.2247652018
 H         -3.8024482175       -0.0019434230        1.7201093299
 H         -2.2732734268       -0.4835491937        3.3957517321
 H          0.0276553144       -1.1573426395        3.9703224727
 H          1.6124477613       -1.8098353676        2.1975990436
 H          0.5911596630       -1.8895947613       -1.4356063397
 C          1.6564908087       -3.3466715558       -0.2959220507
 C          0.7317335586       -4.4857952474       -0.5967833970
 C          1.8990489276       -4.2095517304       -1.4954325748
 H          2.7372594730       -4.8897699387       -1.4793247312
 H          1.7040245406       -3.7796168244       -2.4676911850
 H          0.7660048335       -5.3584184625        0.0370191440
 H         -0.2559232379       -4.2428671893       -0.9603833068
 H          2.3364415552       -3.4528162862        0.5383660630
