  62
        -98.93835285
 C          2.3389555649        1.1580471771        0.2018090367
 C          2.3512464240       -0.1050225626       -0.4338414968
 C          3.3510372276       -1.0738653903        0.0553960454
 C          4.1616282925       -0.7265742628        1.0696606958
 C          5.2711349952       -1.5378091306        1.6796670534
 C          6.6172283809       -1.2076878922        1.0124303555
 C          6.9342559275       -2.0260587861       -0.2385644484
 H          7.8406423881       -1.6061148669       -0.6806308677
 H          7.1578499366       -3.0545135524        0.0525076429
 C          5.8335196058       -2.0479593680       -1.3022330139
 H          5.4183842759       -1.0457651620       -1.4233630782
 H          6.2920579313       -2.3251638116       -2.2534136276
 C          4.7077759386       -3.0439126916       -0.9854656794
 H          5.0268966751       -3.6975073507       -0.1739076321
 H          4.5386560154       -3.6872466982       -1.8516183693
 C          3.3531574669       -2.4104484073       -0.6355461926
 H          2.7795832030       -2.2482321751       -1.5538811378
 H          2.7723631168       -3.1156512059       -0.0307518118
 H          6.6159951752       -0.1429331555        0.7657819953
 H          7.4170486764       -1.3743176554        1.7366859793
 H          5.3241043698       -1.2485333532        2.7313158355
 H          5.0509498353       -2.5994340984        1.6196993362
 O          4.1025638809        0.4953290531        1.6671280431
 C          3.1998221694        1.4572024539        1.2603687043
 O          3.2585040849        2.5234352207        1.9043070652
 H         -0.5856459420        1.0005475418       -1.7081094805
 C         -0.8876922302        1.1484956627       -0.6836670939
 C         -0.0314564352        1.7805898820        0.2032885665
 C         -0.4324011873        1.9268696226        1.5286737968
 C         -1.6617023214        1.4563960080        1.9492989727
 C         -2.5131961069        0.8214663940        1.0610483943
 C         -2.1143076392        0.6544062561       -0.2574859679
 N         -2.9653867906        0.0032728637       -1.1660013601
 S         -3.7134865742       -1.4199011488       -0.6869212103
 O         -2.9329223213       -2.1404940642        0.2923331205
 O         -4.0107218195       -2.1218193239       -1.9167633385
 C         -5.2425827771       -0.8638499807        0.0399264296
 C         -5.6199822025       -1.3266124596        1.2852541154
 C         -6.8198755647       -0.8924096191        1.8272160180
 C         -7.6177697574       -0.0084901338        1.1172886054
 C         -7.2259387124        0.4449404557       -0.1335496415
 C         -6.0285172158        0.0135673096       -0.6814342757
 H         -5.6899082631        0.3406593932       -1.6501741773
 H         -7.8488572030        1.1326961494       -0.6824130912
 H         -8.5501229382        0.3291050272        1.5415663850
 H         -7.1255849365       -1.2443335171        2.7994567737
 H         -4.9637866290       -2.0076021211        1.8038602214
 H         -2.5643100018       -0.0987520621       -2.0874874422
 H         -3.4676614212        0.4403762374        1.3855209619
 H         -1.9607570241        1.5805683657        2.9790752601
 H          0.2425987909        2.4024833525        2.2270069435
 C          1.3483375564        2.2404618848       -0.1997009466
 H          1.6039219655        3.1188129948        0.4076424184
 C          1.4731227257        2.6090594571       -1.6630689577
 C          0.8413674444        3.8754467353       -2.1552122814
 C          2.3327468610        3.7722930043       -2.0525424814
 H          2.9100387703        3.7030757590       -2.9624122520
 H          2.8304861855        4.3129889659       -1.2607303084
 H          0.3250231865        4.4866598990       -1.4306951109
 H          0.3927778272        3.8815590051       -3.1368401529
 H          1.4767516143        1.7519849367       -2.3247492530
 O          1.5789838470       -0.4209311915       -1.3784445228
