  62
        -98.93688203
 C         -2.4143377489       -1.0870377257       -0.2026432650
 C         -2.4770506433        0.1449174484        0.4947569226
 C         -3.8268927592        0.5955950515        0.8666897401
 C         -4.8944670179       -0.1755059273        0.5964230947
 C         -6.3273299990        0.1435612369        0.9261904149
 C         -7.0186818997        1.0413562886       -0.1091747820
 C         -6.5726514705        2.5041141037       -0.1038552695
 H         -7.2849709840        3.0580425662       -0.7184599371
 H         -6.6403848586        2.8997979015        0.9099359921
 C         -5.1594751391        2.7385695937       -0.6559616453
 H         -5.1734985769        3.5843981734       -1.3470756937
 H         -4.8414973928        1.8644951708       -1.2293044164
 C         -4.1052406388        3.0416983638        0.4089882940
 H         -4.3422782742        3.9879361382        0.9003550232
 H         -3.1379719799        3.1546200254       -0.0880279247
 C         -3.9625013615        1.9551979237        1.4829918689
 H         -3.0511147929        2.1524585899        2.0528256052
 H         -4.8143542640        1.9829931593        2.1619510831
 H         -8.0909314788        1.0102840308        0.0972812217
 H         -6.8592867643        0.6156118884       -1.1026088158
 H         -6.3820923772        0.6107253979        1.9097727012
 H         -6.8572170621       -0.8106271829        0.9633966081
 O         -4.7835473690       -1.3874516131       -0.0108614303
 C         -3.5536116448       -1.8619806597       -0.4358390634
 O         -3.6024912834       -2.9793909655       -0.9884121272
 O         -1.4752182094        0.8414384539        0.7991475150
 C         -1.0970479933       -1.6605046677       -0.6939703856
 C         -0.0355874655       -1.5369668449        0.3709893448
 C         -0.2196499741       -2.2089230839        1.5772067084
 C          0.7287599712       -2.1365722038        2.5783225656
 C          1.8919048643       -1.4104176843        2.3908404686
 C          2.0820347695       -0.7317243941        1.1936308052
 C          1.1208087923       -0.7955748473        0.1944756995
 H          1.2868407309       -0.2403225837       -0.7134551799
 N          3.2379969281        0.0362814342        0.9805303673
 S          3.8856663919        0.0965690417       -0.5756794119
 O          3.2253951102        1.1342620363       -1.3266977764
 O          3.8753468318       -1.2231136670       -1.1674397300
 C          5.5591300650        0.5946445956       -0.2096856318
 C          6.5462038486       -0.3677493540       -0.1102614585
 C          7.8373773050        0.0259442412        0.2044932115
 C          8.1175944188        1.3674827455        0.4163757387
 C          7.1166979333        2.3221341585        0.3121221166
 C          5.8238821213        1.9355251063       -0.0034960064
 H          5.0158559757        2.6414576809       -0.1040121666
 H          7.3388786056        3.3644746092        0.4745109390
 H          9.1229960420        1.6715398138        0.6613256400
 H          8.6182700876       -0.7132050090        0.2826968853
 H          6.2834675781       -1.3974942101       -0.2920345900
 H          3.9500087059       -0.1157661216        1.6814170369
 H          2.6376890640       -1.3583518834        3.1696341620
 H          0.5677007342       -2.6585102796        3.5098082444
 H         -1.1256434056       -2.7834416805        1.7194784020
 H         -1.2915646276       -2.7358949506       -0.8461660849
 C         -0.6497956529       -1.1072565649       -2.0391260361
 C         -1.6470940948       -0.6908999386       -3.0774349574
 C         -0.7974544765        0.3391187788       -2.3988666404
 H         -0.0015950613        0.8088314126       -2.9591943972
 H         -1.2559171816        0.9901125979       -1.6712687897
 H         -1.4429075703       -0.9312997329       -4.1099275390
 H         -2.6936555131       -0.7458822181       -2.8143485761
 H          0.2433830295       -1.6075271964       -2.4042607217
