  62
        -98.93793138
 C          1.9059394008        1.0913062596       -0.1932071452
 C          2.3914928063       -0.0521019589       -0.8743987165
 C          3.4955247766       -0.7683688440       -0.2055187430
 C          3.9591479696       -0.3350050056        0.9789363308
 C          5.1036503605       -0.9456259863        1.7339777161
 C          6.4364850402       -0.2868942156        1.3519388678
 C          6.6624964082       -0.1808676513       -0.1561777896
 H          5.9248480334        0.5046732281       -0.5794194042
 H          7.6454069731        0.2705945939       -0.3070688189
 C          6.5946486049       -1.5198711939       -0.9036743574
 H          6.7132562245       -2.3440877954       -0.1993928478
 H          7.4286774454       -1.5714531636       -1.6067208135
 C          5.3150516695       -1.7292836474       -1.7157957529
 H          5.1421393213       -0.8625201820       -2.3586598142
 H          5.4633106973       -2.5947209788       -2.3672727685
 C          4.0406979515       -1.9845706632       -0.9008402707
 H          3.2596574343       -2.3071294739       -1.5961395536
 H          4.2155893290       -2.7914794040       -0.1859165719
 H          7.2472516974       -0.8610864795        1.8039328501
 H          6.4570053310        0.7209234791        1.7728803069
 H          4.9276505109       -0.7983280172        2.8009556219
 H          5.1404147176       -2.0133745626        1.5265109775
 O          3.4599421981        0.7598366825        1.6081724515
 C          2.4326033058        1.4910551174        1.0397227460
 O          2.0752520657        2.4782561393        1.7132119223
 H         -0.2851991201       -0.3996898895        0.1950484222
 C         -0.8405155169        0.4528417641        0.5586067531
 C         -0.4468967752        1.7393644894        0.2174498196
 C         -1.1741321872        2.8148429233        0.7154959043
 C         -2.2654271566        2.6104105853        1.5399746868
 C         -2.6655936100        1.3264157961        1.8629287202
 C         -1.9485619359        0.2440889438        1.3671919094
 N         -2.3395296037       -1.0821247323        1.6588282965
 S         -2.9749322194       -1.9529556232        0.3749871466
 O         -3.3748901192       -3.2264599756        0.9301918332
 O         -2.0253840582       -1.9811977172       -0.7051498300
 C         -4.4241491035       -1.0237819586       -0.0981291299
 C         -5.6549107178       -1.3988724650        0.4045233901
 C         -6.7679462653       -0.6344390313        0.0932410758
 C         -6.6296650366        0.4931160698       -0.7020941776
 C         -5.3866355569        0.8587750173       -1.1957174043
 C         -4.2701716903        0.0955810903       -0.8920580977
 H         -3.2903831876        0.3464454725       -1.2650655092
 H         -5.2783931992        1.7344242978       -1.8151137007
 H         -7.4955529282        1.0900758792       -0.9409911859
 H         -7.7361449516       -0.9187009841        0.4727889362
 H         -5.7142756418       -2.2850516727        1.0156311636
 H         -2.9718773458       -1.1496450689        2.4452020099
 H         -3.5191148570        1.1594573222        2.5029105780
 H         -2.8112877570        3.4555725573        1.9297858214
 H         -0.8613062357        3.8186409863        0.4692220955
 C          0.7540369676        1.9668525177       -0.6671591998
 H          1.0794308063        3.0079336933       -0.4996834676
 C          0.4153215629        1.8432942377       -2.1437713592
 C         -0.6133645119        0.8969999235       -2.6758563263
 C         -0.8905851428        2.3686446918       -2.6654347661
 H         -0.8922742484        2.8965107895       -3.6070111857
 H         -1.6028685773        2.7425020117       -1.9450731617
 H         -0.3990799970        0.4111648756       -3.6157016834
 H         -1.1251268958        0.2496720019       -1.9799421348
 H          1.2885970861        1.9956321513       -2.7689329444
 O          1.9633426264       -0.4728118115       -1.9784599391
