  62
        -98.93898801
 C         -1.8586672249       -0.7886339583       -0.1130338932
 C         -2.4152487746       -0.1476928718        1.0166834098
 C         -3.4946823750        0.8203056377        0.7573921888
 C         -3.8590787080        1.0649015602       -0.5135406241
 C         -4.9635856819        1.9675571637       -0.9891644326
 C         -6.2661968581        1.1734245724       -1.1858339213
 C         -7.1360144314        1.0423143614        0.0639378410
 H         -7.5845347823        2.0116341021        0.2916345174
 H         -7.9492474707        0.3540602830       -0.1774671550
 C         -6.4150545456        0.5316862541        1.3142948437
 H         -7.1691174048        0.1340331017        1.9963106882
 H         -5.7540582478       -0.2944898044        1.0462702229
 C         -5.6173328281        1.6254433587        2.0398951841
 H         -5.9088833684        2.5989572786        1.6459507023
 H         -5.8866616497        1.6271030198        3.0981331948
 C         -4.0897341616        1.4784359234        1.9725517975
 H         -3.6307548559        2.4654531480        2.0957567019
 H         -3.7456787470        0.8683400231        2.8137353397
 H         -5.9996228970        0.1799648210       -1.5555733589
 H         -6.8600688236        1.6614419136       -1.9613417269
 H         -5.1080450064        2.7965049510       -0.3025270301
 H         -4.6474432933        2.3629086545       -1.9568534125
 O         -3.2707400939        0.4518433866       -1.5770906514
 C         -2.2640181815       -0.4851845027       -1.4126999459
 O         -1.8224930648       -0.9592561972       -2.4755143559
 H          0.3330431541        0.6002187353        0.3133061076
 C          0.9325982227       -0.0319182741       -0.3302267016
 C          0.5173289568       -1.3363982273       -0.5717664897
 C          1.3058212815       -2.1408791613       -1.3831042428
 C          2.4581103638       -1.6371221772       -1.9631650271
 C          2.8539676115       -0.3318209895       -1.7407058417
 C          2.0834815986        0.4754154877       -0.9122136098
 N          2.4850953643        1.7982892449       -0.6631918894
 S          4.1008026413        2.0811021787       -0.3328733304
 O          4.1168434414        3.2765428233        0.4809027428
 O          4.8437080907        2.1518010610       -1.5664715527
 C          4.6409194426        0.6695909033        0.6157169738
 C          3.9987152076        0.4028810990        1.8088072770
 C          4.3839658977       -0.7062275225        2.5438732973
 C          5.4000879876       -1.5256543616        2.0759253941
 C          6.0385613438       -1.2413856537        0.8790057906
 C          5.6556712345       -0.1344649386        0.1383682980
 H          6.1225067958        0.1216937732       -0.7986830106
 H          6.8294389425       -1.8790751828        0.5185272981
 H          5.6949709298       -2.3900562913        2.6496256405
 H          3.8872037808       -0.9282680067        3.4748093214
 H          3.2147508895        1.0609191395        2.1487494359
 H          1.8836970061        2.2993912553       -0.0265874152
 H          3.7366202497        0.0801735432       -2.2021865936
 H          3.0539482910       -2.2699449006       -2.6027506064
 H          1.0134293347       -3.1603041387       -1.5721932383
 C         -0.7540912761       -1.8097364295        0.0893447193
 H         -0.5810005825       -1.8387505302        1.1755677474
 C         -1.2059989374       -3.1804014065       -0.3678698284
 C         -0.6427211583       -4.4132159084        0.2716803921
 C         -2.0567114005       -4.0038391309        0.5507491397
 H         -2.8593198858       -4.5875502400        0.1254509075
 H         -2.2885067280       -3.5860405562        1.5197343064
 H         -0.4755075519       -5.2834305327       -0.3447945572
 H          0.0862998099       -4.2804364488        1.0564270326
 H         -1.4398632791       -3.2100254632       -1.4260948866
 O         -2.0257429901       -0.3728420396        2.1956163247
