  62
        -98.94128319
 C          2.6912893521        0.2771863559       -0.2608316230
 C          2.2689115442        1.0607748067        0.8421459008
 C          1.7350166081        2.3945000363        0.5124718128
 C          1.6647141040        2.7881798457       -0.7704095131
 C          1.1282427171        4.1097274823       -1.2397333780
 C         -0.3686841284        4.0358020733       -1.5658190517
 C         -1.2168985114        3.3991689141       -0.4642540896
 H         -2.2601498515        3.4621730606       -0.7839173617
 H         -0.9749114046        2.3359062034       -0.3916855843
 C         -1.0675535286        4.0510808700        0.9170371517
 H         -0.6495594780        5.0536689840        0.8117623943
 H         -2.0603532553        4.1557035213        1.3598551994
 C         -0.2240515914        3.2478706604        1.9093823688
 H         -0.5673408647        2.2098028019        1.9218221121
 H         -0.3904552694        3.6602501505        2.9087473438
 C          1.2897745825        3.2569676544        1.6598500294
 H          1.6356569281        4.2848596195        1.5259108111
 H          1.7745516288        2.8428514176        2.5491023234
 H         -0.7264852616        5.0485504280       -1.7633887606
 H         -0.4964973899        3.4430458167       -2.4745305610
 H          1.3052489366        4.8577991021       -0.4689542338
 H          1.6722204385        4.3951417630       -2.1422612688
 O          2.0724805860        2.0067675319       -1.8040479894
 C          2.5622742278        0.7341243667       -1.5748595860
 O          2.8768553637        0.1133345135       -2.6121796541
 H          0.6537982223       -0.9702932536        0.7362068281
 C          0.8100000197       -1.8411811828        0.1173361550
 C          2.0680522437       -2.1080483118       -0.4009755451
 C          2.2376605080       -3.2435649877       -1.1846723479
 C          1.1683938672       -4.0815772918       -1.4484521647
 C         -0.0943472311       -3.7858689240       -0.9670038408
 C         -0.2733178761       -2.6516524079       -0.1838816082
 N         -1.5383047371       -2.2843422229        0.3073768715
 S         -1.8835128987       -0.6246133802        0.2303861004
 O         -1.3187458112       -0.0667025962       -0.9768165666
 O         -1.4950318334       -0.0145172904        1.4756618034
 C         -3.6633436315       -0.6608678914        0.1226682012
 C         -4.3963799039       -0.8306619513        1.2821810752
 C         -5.7780584520       -0.8959274341        1.1969283804
 C         -6.3999247512       -0.7915189045       -0.0386084581
 C         -5.6510740714       -0.6180792725       -1.1928741624
 C         -4.2684967173       -0.5541627249       -1.1149684722
 H         -3.6443673572       -0.4120646183       -1.9828759826
 H         -6.1368365655       -0.5327045540       -2.1515015141
 H         -7.4753196286       -0.8422201823       -0.1021946097
 H         -6.3634799968       -1.0270694126        2.0925697747
 H         -3.8684331183       -0.8961709705        2.2192230621
 H         -2.2873320623       -2.8384500176       -0.0862258392
 H         -0.9358136454       -4.4201781817       -1.2012885768
 H          1.3136318692       -4.9599923727       -2.0587638511
 H          3.2084613636       -3.4524746758       -1.6097399144
 C          3.2049351644       -1.1503685562       -0.1417335956
 H          3.9285997726       -1.2757651949       -0.9646194566
 C          3.9393633528       -1.4421392612        1.1575989946
 C          3.3344429656       -2.2317267089        2.2750977392
 C          4.4324928955       -2.8286171172        1.4502876685
 H          5.4094564244       -2.9426578825        1.8947386992
 H          4.1653655055       -3.6118421895        0.7575098960
 H          3.5470336328       -1.9130290559        3.2838545311
 H          2.3307100096       -2.6060327901        2.1433054960
 H          4.5894475038       -0.6231857143        1.4459052919
 O          2.3425828404        0.7004919237        2.0450739822
