  62
        -98.94491401
 C         -1.9542252474       -0.8535368795        0.0723964064
 C         -2.2594057685        0.1082771486        1.0626341880
 C         -2.3756784048        1.4956590876        0.5976931979
 C         -2.1537607171        1.7737002938       -0.7001819260
 C         -2.2741209623        3.1375172534       -1.3158578584
 C         -3.6923830753        3.3869096484       -1.8483888401
 C         -4.7958593048        3.0503893359       -0.8454121969
 H         -4.7895824284        1.9741910588       -0.6585516028
 H         -5.7500705144        3.2901201925       -1.3192488141
 C         -4.6867425279        3.7965415915        0.4915732985
 H         -5.6754271115        4.1696270969        0.7664705337
 H         -4.0321395352        4.6615879914        0.3804980318
 C         -4.1953264822        2.9379362988        1.6584253759
 H         -4.7899680664        2.0228883431        1.7163199028
 H         -4.3597097241        3.4951092256        2.5844843513
 C         -2.7128713941        2.5446444499        1.6199469585
 H         -2.4566907625        2.1079156743        2.5899834705
 H         -2.0961640802        3.4344405545        1.4748714118
 H         -3.8392484719        2.7718612070       -2.7390805915
 H         -3.7709169469        4.4353655942       -2.1413725880
 H         -2.0147990582        3.8881417770       -0.5714851686
 H         -1.5640360493        3.2008344896       -2.1423438804
 O         -1.8424210606        0.8258826477       -1.6204649360
 C         -1.7241719507       -0.5064582882       -1.2590226629
 O         -1.4312563444       -1.2713117761       -2.1985360183
 H          0.4658175840       -0.9229061795        0.8820489068
 C          0.6737253439       -1.8790348913        0.4223482829
 C         -0.3720600659       -2.7502517186        0.1439057365
 C         -0.0756419868       -3.9794661250       -0.4304030965
 C          1.2318110208       -4.3052609470       -0.7483778190
 C          2.2627236851       -3.4148620927       -0.5139209533
 C          1.9783434877       -2.1901041781        0.0807417484
 N          3.0016953176       -1.2658739371        0.3595885568
 S          2.6391889772        0.3796548905        0.2310526527
 O          2.0208277246        0.8154704131        1.4593314840
 O          1.9093526046        0.6471654327       -0.9879713647
 C          4.2887644461        1.0510650312        0.1283806589
 C          5.0298335955        1.1618906237        1.2900521836
 C          6.3254711423        1.6475400480        1.2141201871
 C          6.8559364153        2.0117375039       -0.0148059229
 C          6.0995305954        1.8973126899       -1.1714070610
 C          4.8032995320        1.4104535494       -1.1027183202
 H          4.1743550456        1.3089895447       -1.9728522692
 H          6.5126835855        2.1842125525       -2.1249415223
 H          7.8643660642        2.3898991881       -0.0713116063
 H          6.9155006217        1.7403194412        2.1115109450
 H          4.5705324824        0.8749637468        2.2215273884
 H          3.8653445086       -1.4877489571       -0.1177903063
 H          3.2776718364       -3.6610119390       -0.7865628769
 H          1.4478846528       -5.2602889157       -1.2028024707
 H         -0.8695934348       -4.6765716271       -0.6428092219
 C         -1.7735838671       -2.3036510330        0.4820272659
 H         -1.8855867509       -2.3156180382        1.5771646500
 C         -2.8515886765       -3.1735493688       -0.1300230239
 C         -3.3254434970       -4.4056734485        0.5798699506
 C         -4.2081232475       -3.1973440976        0.5061784179
 H         -5.0771505738       -3.2280006949       -0.1336907819
 H         -4.3441856071       -2.6053797713        1.3996531132
 H         -2.8695390272       -4.6411116290        1.5296011838
 H         -3.5928729681       -5.2694339119       -0.0098435840
 H         -2.8053942008       -3.1874916485       -1.2133202503
 O         -2.4257499617       -0.1816733504        2.2800050824
