  62
        -98.94697600
 C         -2.3344070407       -0.2827776775       -0.4513614946
 C         -1.4120258204        0.5462483727       -1.1333223636
 C         -1.5131158735        1.9881437004       -0.8638653768
 C         -2.4289324259        2.4385355193        0.0107053453
 C         -2.6093691265        3.8739627378        0.4098855990
 C         -1.7710059913        4.2260936153        1.6459044514
 C         -0.3055136900        3.8007810284        1.5477020112
 H          0.1949143387        4.1496802969        2.4543390226
 H         -0.2386956384        2.7096209653        1.5524801242
 C          0.4341055565        4.3416149127        0.3161483475
 H          1.4148375729        4.7041030791        0.6316126765
 H         -0.1083718964        5.1905466741       -0.1029020315
 C          0.6753254255        3.2947638516       -0.7727419712
 H          1.0943248239        2.3971558967       -0.3110974284
 H          1.4198852635        3.6888462054       -1.4700362439
 C         -0.5587493712        2.8932914413       -1.5915985353
 H         -1.0732270791        3.7892029502       -1.9460480555
 H         -0.2131175585        2.3288305455       -2.4624188286
 H         -2.2111396346        3.7331048517        2.5159858552
 H         -1.8270629508        5.3053798944        1.8024344420
 H         -3.6640586120        4.0339632237        0.6417278053
 H         -2.3299979860        4.5143638671       -0.4246465182
 O         -3.2905744583        1.6154625007        0.6613904951
 C         -3.2551578926        0.2480948051        0.4571813818
 O         -4.0975660520       -0.3875286535        1.1248975038
 O         -0.5397839089        0.1304759917       -1.9430045224
 C         -2.3687850233       -1.7990583109       -0.5818937072
 C         -1.3845970548       -2.4202845612        0.3815830330
 C         -1.7852676690       -3.3905857816        1.2916939443
 C         -0.8833364214       -3.9134115325        2.2017387582
 C          0.4191160552       -3.4506468661        2.2449827089
 C          0.8294029405       -2.4779857420        1.3390561078
 C         -0.0617777189       -2.0021945488        0.3906462602
 H          0.2672936081       -1.2632130444       -0.3183988893
 N          2.1358687045       -1.9660929089        1.3723579730
 S          2.4135566035       -0.3041831009        1.2861730544
 O          3.3185565783       -0.0193358080        2.3836982205
 O          1.1776278167        0.4368032775        1.2760579659
 C          3.3198015434       -0.1181332717       -0.2372549774
 C          4.6968182230       -0.2256481775       -0.1716809160
 C          5.4403814752       -0.1074581339       -1.3336799562
 C          4.7976757607        0.1155408545       -2.5422344345
 C          3.4169644199        0.2208719749       -2.5919211111
 C          2.6653353753        0.1017694994       -1.4320295781
 H          1.5894890474        0.1836724856       -1.4611902817
 H          2.9105214024        0.3943753373       -3.5280583712
 H          5.3742905251        0.2095447409       -3.4490333758
 H          6.5147691122       -0.1879517232       -1.2937507256
 H          5.1548344837       -0.3840931064        0.7906923036
 H          2.7100217126       -2.3672002394        2.1003737629
 H          1.1136849092       -3.8316655331        2.9789072704
 H         -1.2040663254       -4.6700265816        2.9019738875
 H         -2.8141495843       -3.7194811698        1.2973426650
 H         -3.3772275962       -2.1020645902       -0.2671522645
 C         -2.1377234891       -2.3037586144       -1.9924594996
 C         -2.6805479441       -3.6446347756       -2.3815442451
 C         -3.2965230481       -2.3961757443       -2.9368732722
 H         -3.1335231946       -2.1539125231       -3.9760748073
 H         -4.2669343161       -2.0976336136       -2.5668227329
 H         -2.0931105824       -4.2651474684       -3.0404871041
 H         -3.2372492965       -4.1956416899       -1.6386721270
 H         -1.1829268506       -2.0066695811       -2.4043292341
