  62
        -98.93598201
 C         -0.7015312072       -1.6748416719       -0.7776093880
 C         -1.8570235335       -2.0692473557       -0.0558308693
 C         -3.0237784160       -1.1788162495       -0.1343949566
 C         -2.9329261607       -0.0509460739       -0.8621256957
 C         -3.9974144511        1.0037855609       -0.9745994916
 C         -4.0379413559        1.8576884224        0.3081973308
 C         -5.3300324971        1.7261359851        1.1146490638
 H         -5.1616729899        2.2020314966        2.0830154560
 H         -6.1236809548        2.2801897265        0.6089589878
 C         -5.8298117571        0.2969593577        1.3434245616
 H         -6.5816470370        0.3441478190        2.1341955085
 H         -6.3423089936       -0.0610483967        0.4492084116
 C         -4.7610179964       -0.7295306623        1.7400666055
 H         -5.1918324636       -1.3954843926        2.4907060919
 H         -3.9066384239       -0.2380489839        2.2056028246
 C         -4.2693452369       -1.6198834237        0.5840125779
 H         -4.0225430013       -2.6071146954        0.9860189721
 H         -5.0776148084       -1.7543752360       -0.1406577789
 H         -3.1871736748        1.5753901999        0.9308445745
 H         -3.9080527376        2.9090405302        0.0498930444
 H         -3.7496653517        1.6215041286       -1.8376120773
 H         -4.9618988351        0.5317030900       -1.1502697348
 O         -1.8121090978        0.2944421217       -1.5433704505
 C         -0.6725708558       -0.5036857662       -1.5363296787
 O          0.2503721979       -0.0544783028       -2.2375689952
 O         -1.9111096067       -3.1335380064        0.6188703228
 C          0.5052958046       -2.5897281292       -0.6701903941
 C          1.3934562273       -2.1708334430        0.4738495118
 C          1.8507458282       -3.1023283757        1.3991229951
 C          2.6643463349       -2.7106516284        2.4473822528
 C          3.0449546053       -1.3881242533        2.5850740685
 C          2.5886324102       -0.4474730523        1.6682127526
 C          1.7612047708       -0.8415467936        0.6268975404
 H          1.4124745276       -0.1069745169       -0.0817008604
 N          2.9285571323        0.9060437931        1.7937248094
 S          3.1965095973        1.8278507048        0.4205048831
 O          3.8313804328        1.0505414162       -0.6174602431
 O          3.9573729779        2.9631394133        0.9041661858
 C          1.5915226822        2.4053869483       -0.0803692110
 C          0.6666259152        2.7289076171        0.8929548289
 C         -0.5594692350        3.2415664544        0.5039011600
 C         -0.8348685407        3.4278113644       -0.8423684361
 C          0.1054350798        3.1017900962       -1.8049769526
 C          1.3329578600        2.5843070680       -1.4233660099
 H          2.0806497245        2.2948419045       -2.1439451666
 H         -0.1139621202        3.2316651027       -2.8523829679
 H         -1.7907257416        3.8256967367       -1.1447014621
 H         -1.2964222565        3.4939504898        1.2498676251
 H          0.9141205801        2.5675201991        1.9293975731
 H          3.5871808704        1.1204568230        2.5282591204
 H          3.6853542298       -1.0809865913        3.3978195231
 H          3.0110071733       -3.4423764136        3.1611718618
 H          1.5530128418       -4.1357583629        1.2991288954
 H          0.0888436075       -3.5778404959       -0.4155605421
 C          1.2707832991       -2.7514510987       -1.9751293821
 C          2.5632911586       -2.0614580064       -2.2781974669
 C          2.5502867328       -3.5346992668       -2.0081448140
 H          2.7214299510       -4.2134890344       -2.8300210006
 H          2.9528667435       -3.8713450747       -1.0645755752
 H          2.7160468979       -1.7197399819       -3.2909480354
 H          2.9880107282       -1.3957852391       -1.5422493679
 H          0.5973613426       -2.8864849059       -2.8163112563
