  62
        -98.93588538
 C          2.7288852537        1.1245746070       -0.2876175377
 C          2.4645992294       -0.0193171610       -1.0803259794
 C          3.3340803731       -1.1828251705       -0.8393246740
 C          4.3068940195       -1.1075519110        0.0857752752
 C          5.2213349916       -2.2343091604        0.4679163282
 C          4.6429002135       -3.0487310941        1.6335157774
 C          3.1853066463       -3.4637930853        1.4333180377
 H          2.8953267362       -4.0600463156        2.3011396597
 H          2.5569919434       -2.5698659001        1.4344436140
 C          2.9244239282       -4.2661730802        0.1508312576
 H          3.8626308492       -4.6712558252       -0.2298465275
 H          2.2800631526       -5.1136721783        0.3935569782
 C          2.2251438310       -3.4787136630       -0.9587783222
 H          1.3332948190       -2.9930718676       -0.5546322493
 H          1.8946799642       -4.1878661220       -1.7223231425
 C          3.0775102109       -2.4146456257       -1.6620889199
 H          4.0181707145       -2.8575190058       -1.9952084507
 H          2.5256577227       -2.0763637388       -2.5440421651
 H          5.2607878768       -3.9375904037        1.7732055352
 H          4.7051138883       -2.4450673087        2.5419219820
 H          5.3783783682       -2.8772320984       -0.3959701313
 H          6.1794092658       -1.8101241709        0.7728896940
 O          4.5379809531        0.0093345331        0.8215783757
 C          3.7577182901        1.1397220066        0.6600312474
 O          4.0778785604        2.0899880389        1.4016733325
 H         -0.0204127736        0.5678711675       -0.5328972305
 C         -0.2387948231        1.3233299851        0.2080129677
 C          0.6677986615        2.3563040487        0.4045071043
 C          0.3697880037        3.3301297007        1.3495244578
 C         -0.8071225530        3.2680014040        2.0760799717
 C         -1.7071115995        2.2361844580        1.8785624497
 C         -1.4173940475        1.2568096907        0.9368561951
 N         -2.3150101765        0.1843934764        0.7308920924
 S         -3.8879713100        0.6169237415        0.2827084523
 O         -3.8605441085        1.4162593952       -0.9234535553
 O         -4.5375141595        1.2171903794        1.4200465071
 C         -4.5957773852       -0.9838661147       -0.0444756243
 C         -4.6581322922       -1.4474892817       -1.3443582448
 C         -5.1870535693       -2.7066525115       -1.5814904515
 C         -5.6382896796       -3.4766547213       -0.5201980857
 C         -5.5682292742       -2.9970904867        0.7794988818
 C         -5.0413973172       -1.7389672852        1.0234215614
 H         -4.9740164630       -1.3216975423        2.0144294631
 H         -5.9220397782       -3.5984991775        1.6012730586
 H         -6.0493739328       -4.4559612677       -0.7080195003
 H         -5.2443610007       -3.0810566691       -2.5909441919
 H         -4.3029639398       -0.8119433901       -2.1399959865
 H         -1.9485717386       -0.4528529759        0.0340337071
 H         -2.6320890303        2.1855624723        2.4291237674
 H         -1.0269459765        4.0321170502        2.8064635846
 H          1.0710847801        4.1345024744        1.5187360099
 C          1.9385688428        2.4190385099       -0.4035117578
 H          2.5828763506        3.1860262813        0.0537516360
 C          1.7031552647        2.8341157370       -1.8514827764
 C          0.3545377985        2.9065546919       -2.4970260414
 C          1.0857093716        4.1674522295       -2.1539807361
 H          1.5007160756        4.7640080912       -2.9521276282
 H          0.7169886699        4.7425387356       -1.3175655440
 H          0.2828507957        2.6124284327       -3.5332951515
 H         -0.5175443450        2.6485782172       -1.9156673994
 H          2.5202522734        2.5244573376       -2.4953852547
 O          1.5540456221       -0.0914431443       -1.9470558382
