  62
        -98.93518688
 C         -2.5825528696       -0.0293056376        0.6922116908
 C         -2.2202344395        0.4874528027       -0.5766144190
 C         -1.7530476984        1.8818940923       -0.5999599786
 C         -1.6530588076        2.5639231218        0.5543021617
 C         -1.0335602465        3.9228684912        0.7112604821
 C          0.5028007534        3.7814063700        0.6795255717
 C          1.1751192236        4.4549416600       -0.5170771682
 H          1.1962581745        5.5348821399       -0.3528581978
 H          2.2081140233        4.1015229392       -0.5485799586
 C          0.5235479931        4.2011069311       -1.8793302782
 H          1.2431550831        4.5145359009       -2.6388074082
 H         -0.3513921765        4.8435787518       -1.9938454977
 C          0.1074934919        2.7532662115       -2.1693486087
 H          0.3134681314        2.5444411618       -3.2218264688
 H          0.7066876415        2.0465780408       -1.5921493091
 C         -1.3869320883        2.4586072926       -1.9388490984
 H         -1.9718610176        3.3651848631       -2.1206674379
 H         -1.7040762691        1.7050073632       -2.6660140487
 H          0.7503473625        2.7164983198        0.6828415412
 H          0.9257119039        4.2040689993        1.5926075617
 H         -1.3770073662        4.5833715518       -0.0816871475
 H         -1.3599649360        4.3246296111        1.6708088524
 O         -2.0205643777        2.0413483515        1.7524989516
 C         -2.4605948487        0.7327169918        1.8550424011
 O         -2.7087121087        0.3669264915        3.0227991810
 H         -0.3241853704       -1.2345134395        1.0911516698
 C         -0.5674259212       -2.0077947890        0.3771449595
 C         -1.9017524215       -2.3171328079        0.1385689897
 C         -2.1987956425       -3.3207585572       -0.7718407007
 C         -1.1796673032       -3.9688100378       -1.4497417212
 C          0.1414590571       -3.6109705589       -1.2572502314
 C          0.4489883881       -2.6120652295       -0.3397505410
 N          1.7851828285       -2.2103192706       -0.1140483012
 S          2.1603218697       -0.5704103408       -0.2978148306
 O          1.3692523906        0.2306637894        0.5999618500
 O          2.1097049597       -0.2127687602       -1.6995387504
 C          3.8554405499       -0.5986577724        0.2525529690
 C          4.0976526001       -0.6722578032        1.6105952889
 C          5.4083702302       -0.7375679844        2.0553033386
 C          6.4495396300       -0.7299607848        1.1386395083
 C          6.1909490797       -0.6536920340       -0.2213977216
 C          4.8815711996       -0.5888412928       -0.6722101513
 H          4.6324924494       -0.5210248722       -1.7189557912
 H          7.0023494395       -0.6450254744       -0.9311408618
 H          7.4686794800       -0.7818329857        1.4877963380
 H          5.6123754004       -0.7947672850        3.1124051085
 H          3.2565798103       -0.6689641628        2.2847951791
 H          2.4262704280       -2.7310425909       -0.7010732216
 H          0.9299998066       -4.0911039092       -1.8178331918
 H         -1.4213390240       -4.7446939573       -2.1605934815
 H         -3.2257889628       -3.5762233764       -0.9756634305
 C         -2.9316752707       -1.4983871774        0.8796549403
 H         -2.7957821406       -1.6823468879        1.9589337102
 C         -4.3691962711       -1.8721730361        0.5560930105
 C         -5.4611560502       -0.8467295853        0.6112491012
 C         -5.0487185710       -1.4320900651       -0.7041958692
 H         -5.7231842017       -2.1228100043       -1.1891450393
 H         -4.4800989907       -0.8212168052       -1.3866874090
 H         -5.1762931194        0.1724168744        0.8301845015
 H         -6.4138382004       -1.1345672747        1.0299885313
 H         -4.6234776517       -2.8602892561        0.9274793201
 O         -2.2718632903       -0.1771494168       -1.6453757593
