  62
        -98.94356122
 C         -0.5010121525       -1.8175365746       -0.1207634761
 C         -1.6727514799       -1.8376666420        0.6662520068
 C         -2.7925225501       -0.9921315110        0.2122748999
 C         -2.6349864880       -0.2574448996       -0.9042727582
 C         -3.6459149787        0.6611730230       -1.5368290276
 C         -3.7751977897        2.0187421240       -0.8164855481
 C         -3.5748400845        1.9749085603        0.6983829258
 H         -2.6403815884        1.4586140062        0.9333168020
 H         -3.4602873403        3.0030431193        1.0546130922
 C         -4.7228784795        1.3390268782        1.4803504692
 H         -4.4263178998        1.3002962721        2.5318085803
 H         -5.6004020214        1.9865917008        1.4055919770
 C         -5.1340072124       -0.0628515650        1.0350273702
 H         -5.9074852122       -0.4103523985        1.7266589435
 H         -5.5910207742       -0.0247430691        0.0499013946
 C         -4.0235875109       -1.1099823424        1.0764363815
 H         -3.6484431581       -1.1865566228        2.1034216803
 H         -4.4652300993       -2.0893480593        0.8520417129
 H         -4.7566189747        2.4411283637       -1.0378038687
 H         -3.0217617419        2.6942773887       -1.2267740615
 H         -3.3137543551        0.8381536966       -2.5615874534
 H         -4.6050385045        0.1517180576       -1.5857451366
 O         -1.4737282079       -0.2429295300       -1.6158532941
 C         -0.3796440952       -1.0054081122       -1.2474822969
 O          0.6132021250       -0.8815847500       -1.9878325724
 H          0.8010632083       -0.2007072190        1.2941240948
 C          1.7825951058       -0.5833078784        1.0558856011
 C          1.9153361859       -1.8533398972        0.5113673688
 C          3.1937595519       -2.3236665769        0.2334320724
 C          4.3024931507       -1.5358493892        0.4877210299
 C          4.1632152830       -0.2628903786        1.0095714768
 C          2.8891702871        0.2155080848        1.2930004353
 N          2.7008636727        1.5026448178        1.8231677117
 S          1.4158047140        2.4307078909        1.3058894115
 O          1.7852134874        3.7819608540        1.6790490922
 O          0.1813496215        1.9494831484        1.8757673123
 C          1.3568387119        2.3185425454       -0.4731653850
 C          0.1213119983        2.3975969059       -1.0795077370
 C          0.0450250896        2.3754340456       -2.4617391973
 C          1.2037644818        2.2696224184       -3.2122964983
 C          2.4388865820        2.1945977193       -2.5895732614
 C          2.5216015948        2.2262558867       -1.2074603353
 H          3.4744758356        2.1687511626       -0.7073697855
 H          3.3388173784        2.1043720324       -3.1764587619
 H          1.1421536139        2.2372345818       -4.2886205773
 H         -0.9172296179        2.4235958571       -2.9460825223
 H         -0.7553817383        2.4571883086       -0.4539410633
 H          3.5404910011        2.0547599473        1.9205084854
 H          5.0275763729        0.3548018712        1.2006745714
 H          5.2888188341       -1.9149491618        0.2682323996
 H          3.3209812449       -3.3094381874       -0.1829527808
 C          0.6760293010       -2.6826860507        0.2823910480
 H          0.3896879654       -3.1376577052        1.2434729239
 C          0.8819618940       -3.7874646735       -0.7357736726
 C          1.3563740904       -5.1432818757       -0.3075622795
 C         -0.0648807493       -4.9489668314       -0.7397740174
 H         -0.3796343054       -5.3561850502       -1.6888234893
 H         -0.8366867624       -4.9581853972        0.0163096809
 H          2.0182410328       -5.6888748477       -0.9632840530
 H          1.5459739450       -5.2995525001        0.7437573486
 H          1.2112932050       -3.4070052238       -1.6962134631
 O         -1.7860727817       -2.5395941927        1.7100007326
