  62
        -98.94024628
 C         -2.0161479501       -0.1212014302       -0.4918053993
 C         -2.8086746298        0.5650093686        0.4618729117
 C         -4.1351493998       -0.0164755716        0.7202802312
 C         -4.5046064400       -1.1574032608        0.1131688698
 C         -5.8091237900       -1.8825747110        0.3032648391
 C         -6.9557414502       -1.3404377798       -0.5611477300
 C         -7.5149946500        0.0144647797       -0.1249928081
 H         -8.4448608001        0.1692307705       -0.6759772178
 H         -7.7676351098       -0.0226208216        0.9351483519
 C         -6.5793649100        1.2017627900       -0.3922742568
 H         -7.1473731400        2.0180779206       -0.8442639456
 H         -5.8144116701        0.9064392109       -1.1142242473
 C         -5.8941176197        1.7617724483        0.8542781638
 H         -5.2298701597        2.5728163687        0.5452703348
 H         -6.6451271795        2.1802288675        1.5279353045
 C         -5.0592622496        0.7350236273        1.6306406823
 H         -4.4452984894        1.2718256263        2.3578235229
 H         -5.7124306896        0.0455820366        2.1649691916
 H         -6.6125994204       -1.2772520884       -1.5965059500
 H         -7.7656914402       -2.0726521097       -0.5243015908
 H         -6.0974308198       -1.8504682523        1.3543912392
 H         -5.6293957702       -2.9230703106        0.0239567177
 O         -3.6940456902       -1.8140704797       -0.7598227112
 C         -2.4523731603       -1.3036649694       -1.0958135708
 O         -1.8315078205       -1.9843000083       -1.9384761118
 O         -2.4503974797        1.6010270778        1.0758629730
 C         -0.6362290501        0.3492403003       -0.9214998490
 C          0.4244350100       -0.2215987210       -0.0165160499
 C          0.3437446303       -0.0809538728        1.3654132403
 C          1.3289250004       -0.6039788639        2.1829053594
 C          2.4161298803       -1.2676358233        1.6413456183
 C          2.5093907700       -1.4063804115        0.2633976181
 C          1.5161732399       -0.8856675704       -0.5558294910
 H          1.5856572997       -1.0126099190       -1.6278518312
 N          3.6390550598       -2.0447900109       -0.2882959029
 S          5.1140350600       -1.3336165615        0.0843561477
 O          6.0208506797       -1.7539311902       -0.9594532730
 O          5.4855590202       -1.6854223432        1.4308476572
 C          4.7813654501        0.4146256187       -0.0288525799
 C          4.7073412999        0.9832770304       -1.2851650892
 C          4.3473216499        2.3162130905       -1.3978859974
 C          4.0544736302        3.0503194891       -0.2585998964
 C          4.1372483804        2.4658645774        0.9952853528
 C          4.5039173203        1.1348692973        1.1153634710
 H          4.5827340505        0.6457087060        2.0720255504
 H          3.9102989006        3.0399544163        1.8791473436
 H          3.7571768603        4.0826682592       -0.3497932550
 H          4.2868179198        2.7760472718       -2.3712598068
 H          4.9430985997        0.3792732315       -2.1470407200
 H          3.5677843896       -2.1928336096       -1.2850469131
 H          3.1969924203       -1.6761322941        2.2624445876
 H          1.2513910306       -0.4920300453        3.2537531996
 H         -0.4960501096        0.4489958967        1.7880785711
 H         -0.4861150903       -0.0873971384       -1.9215764396
 C         -0.5344019700        1.8626683104       -1.0669473571
 C          0.3513685802        2.7199966093       -0.2180708161
 C          0.7092395999        2.4668448911       -1.6492912665
 H          0.6091368098        3.2700874320       -2.3630993354
 H          1.5379461798        1.8017895613       -1.8423082775
 H         -0.0214239597        3.6929459089        0.0623503152
 H          0.9474969403        2.2449091482        0.5448932032
 H         -1.4769733501        2.3037954109       -1.3728621163
