  62
        -98.94092484
 C          1.7294534778        1.0636336285       -0.0261653502
 C          2.1640222949       -0.1448957255       -0.6244084681
 C          3.6205674381       -0.2892058516       -0.7894011675
 C          4.4378826879        0.6979963620       -0.3829288562
 C          5.9366798537        0.6554293466       -0.4450984908
 C          6.5291804164        0.0905328579        0.8535512389
 C          5.8784006072       -1.2143645695        1.3126489610
 H          6.3962110972       -1.5346945029        2.2193247622
 H          4.8396715643       -1.0179973259        1.5881364830
 C          5.9199665395       -2.3440553758        0.2741403292
 H          6.6774271269       -2.1267505841       -0.4798770640
 H          6.2164711048       -3.2685944170        0.7740276793
 C          4.5832129623       -2.6211568322       -0.4166379999
 H          3.7997001547       -2.7477024551        0.3350205195
 H          4.6704029784       -3.5663266356       -0.9593332256
 C          4.1176591877       -1.5590999456       -1.4208016789
 H          4.9181330159       -1.3491959982       -2.1334051870
 H          3.2674512774       -1.9737511029       -1.9707869706
 H          7.5990215160       -0.0668041227        0.7051098493
 H          6.4011954663        0.8335265788        1.6441267136
 H          6.2430906177        0.0455760387       -1.2927121531
 H          6.3041414862        1.6728904731       -0.5892505789
 O          3.9843947220        1.8423131795        0.1891860731
 C          2.6304486157        2.0432505228        0.4011111163
 O          2.3574593490        3.1157741482        0.9752231926
 H         -1.7600599172       -0.2129851661       -0.8490354791
 C         -1.4475844613       -0.5312559839        0.1305561928
 C         -0.4209672307        0.1224386265        0.7919372076
 C         -0.0062908671       -0.3661794647        2.0287624592
 C         -0.5964781036       -1.4859681834        2.5805309452
 C         -1.6320273242       -2.1283190335        1.9237930502
 C         -2.0532179750       -1.6485936328        0.6902142442
 N         -3.1006343792       -2.2729354160       -0.0000719726
 S         -4.1566083628       -1.3685495895       -0.9196971438
 O         -5.3723107105       -2.1547403841       -0.9475787131
 O         -3.5853559510       -1.0594664211       -2.2058971818
 C         -4.4265298835        0.1359497032        0.0033866402
 C         -4.8324120031        0.0410784876        1.3198879828
 C         -5.0344569158        1.2040897198        2.0448434752
 C         -4.8318170965        2.4371303141        1.4440728945
 C         -4.4339549590        2.5165287481        0.1187542268
 C         -4.2276310325        1.3557859464       -0.6098903144
 H         -3.9118774713        1.3717248754       -1.6410746143
 H         -4.2791646326        3.4764869911       -0.3479635967
 H         -4.9855307727        3.3418878247        2.0107092986
 H         -5.3462807093        1.1462492518        3.0751746215
 H         -4.9891443746       -0.9309138542        1.7581316937
 H         -3.5609871814       -3.0224354655        0.4936410718
 H         -2.0978794202       -3.0018456781        2.3538056633
 H         -0.2552013255       -1.8593904616        3.5343715974
 H          0.7991710719        0.1393390451        2.5446927065
 C          0.2594655330        1.3472314981        0.2333252218
 H          0.2556602427        2.1196235134        1.0203790764
 C         -0.4808425315        1.9398576831       -0.9561142653
 C          0.2229797285        2.7892665344       -1.9703844275
 C         -0.2874032274        1.4337337964       -2.3525931190
 H         -1.1504422425        1.3649465807       -2.9996844456
 H          0.4240783707        0.6366132937       -2.5009189650
 H         -0.2875768428        3.6602473070       -2.3527141319
 H          1.2896412552        2.9218383734       -1.8610334482
 H         -1.4865261857        2.2483506255       -0.6861749021
 O          1.3938433266       -1.0641973681       -1.0039095613
