  62
        -98.93974052
 C          2.1334702085        0.3484093472        0.3392245164
 C          3.1811875924        0.6307551729       -0.5718569322
 C          4.1339561617       -0.4627590914       -0.8090534039
 C          3.9568865855       -1.6547789598       -0.2134401323
 C          4.8329079294       -2.8674709634       -0.3745249647
 C          6.0678749039       -2.8686010166        0.5373934142
 C          7.1681334159       -1.8811671526        0.1458764020
 H          8.0529114395       -2.1403783467        0.7307254070
 H          7.4208517866       -2.0193878925       -0.9057635681
 C          6.8199642268       -0.4086566658        0.4046814006
 H          5.9754397238       -0.3498849547        1.0952683911
 H          7.6646153322        0.0853664340        0.8901936247
 C          6.4869257141        0.3940695713       -0.8528710500
 H          6.2198352402        1.4095322403       -0.5500567604
 H          7.3692954568        0.4540425058       -1.4937292746
 C          5.3238517144       -0.1759454084       -1.6751264718
 H          5.6390338017       -1.0777689023       -2.1990416961
 H          5.0251905984        0.5728403979       -2.4124996784
 H          5.7447593956       -2.6676247130        1.5615410788
 H          6.4885495232       -3.8765619765        0.5138340265
 H          4.2156524130       -3.7318378189       -0.1201554141
 H          5.1465413687       -2.9583353961       -1.4148119561
 O          2.9128874530       -1.9025483499        0.6230313072
 C          2.0024792040       -0.9087118684        0.9378594115
 O          1.1316400369       -1.2621234982        1.7605351579
 O          3.3397001339        1.7287423412       -1.1665318144
 C          1.0843732826        1.3731069642        0.7429945268
 C          0.0062021051        1.4991394695       -0.3073408249
 C          0.2653361707        2.0493269957       -1.5584967330
 C         -0.7446298858        2.1549742776       -2.4967515689
 C         -2.0254059920        1.7184576575       -2.2088551451
 C         -2.2960952624        1.1706628479       -0.9600811412
 C         -1.2803883370        1.0646790970       -0.0202580117
 H         -1.4964025752        0.6185679413        0.9394014579
 N         -3.6023589202        0.7659710835       -0.6325970004
 S         -3.8344290301       -0.5749123306        0.3655662052
 O         -3.5811838294       -0.1894529017        1.7307195834
 O         -3.0912312240       -1.7077824732       -0.1407749358
 C         -5.5850269707       -0.8237820736        0.1318232669
 C         -6.4635497329       -0.0147713508        0.8277687975
 C         -7.8251451187       -0.1762298151        0.6275891994
 C         -8.2836077612       -1.1381943017       -0.2604011984
 C         -7.3903228050       -1.9441491626       -0.9499131713
 C         -6.0268172215       -1.7867057308       -0.7554283638
 H         -5.2954331812       -2.3951589870       -1.2629759992
 H         -7.7495484289       -2.6933718710       -1.6368559943
 H         -9.3438957256       -1.2624752491       -0.4139477964
 H         -8.5225720790        0.4468252817        1.1638343994
 H         -6.0604887929        0.7121640611        1.5133176349
 H         -4.2043283287        0.7162240106       -1.4439580153
 H         -2.8120961158        1.8021756627       -2.9434384023
 H         -0.5308646351        2.5785831666       -3.4665029121
 H          1.2677350882        2.3716107019       -1.7930377904
 H          0.6123232929        0.9677317613        1.6490079872
 C          1.6784123917        2.7277031822        1.0796664317
 C          0.8869718447        3.6701238239        1.9331511407
 C          2.1122999815        3.0066580817        2.4854265622
 H          2.9981894442        3.6035189494        2.6423442480
 H          1.9815175813        2.2191533454        3.2141252889
 H          0.9293545523        4.7253282368        1.7116083677
 H         -0.0754690701        3.3317975594        2.2878833229
 H          2.2767237850        3.1472907634        0.2823130827
