  62
        -98.94024094
 C         -2.4472152206       -0.9319156321       -0.0149823869
 C         -2.6412733346        0.4450930158        0.2504621009
 C         -4.0104248545        0.8343846804        0.6120258412
 C         -4.9729862694       -0.1018742757        0.6974351387
 C         -6.4088750215        0.1360856391        1.0794906584
 C         -7.2982597959        0.5901966679       -0.0860355299
 C         -7.0686620969        2.0265210081       -0.5577786894
 H         -7.8967594227        2.2816196006       -1.2219937117
 H         -7.1175290802        2.7010056648        0.2975717954
 C         -5.7484749556        2.2423200769       -1.3108565006
 H         -5.3513010582        1.2775606828       -1.6350101395
 H         -5.9352470918        2.8299490227       -2.2125855935
 C         -4.6726744668        2.9744894245       -0.5084360610
 H         -5.0055826031        3.9919947146       -0.2918215940
 H         -3.7709099451        3.0387153407       -1.1229107604
 C         -4.2961848086        2.2919717562        0.8131774739
 H         -3.3835983263        2.7581148409        1.1927672161
 H         -5.0908136483        2.4276189403        1.5464750663
 H         -8.3362413694        0.4999332727        0.2422974172
 H         -7.1536175710       -0.0960490629       -0.9235905584
 H         -6.4568081247        0.8712318992        1.8832033392
 H         -6.7918885480       -0.8154952806        1.4541702755
 O         -4.7372809818       -1.4201191701        0.4589574739
 C         -3.4802360601       -1.8636291979        0.0820103659
 O         -3.4087206369       -3.0925759884       -0.1241189881
 O         -1.7232771631        1.3041731770        0.1938002004
 C         -1.0754504910       -1.4363843357       -0.4221599815
 C         -0.0499709677       -1.0806977372        0.6270345801
 C         -0.3252437378       -1.3648635381        1.9626812426
 C          0.5930702125       -1.0706044750        2.9512452751
 C          1.8130622885       -0.5016409462        2.6295286082
 C          2.0982737155       -0.2152852911        1.3004061241
 C          1.1696415751       -0.5055605553        0.3097687360
 H          1.4204070149       -0.2731860680       -0.7114064375
 N          3.3165452991        0.3840492245        0.9428848541
 S          4.0288289347       -0.0435028956       -0.5260893521
 O          3.4419078964        0.7420919328       -1.5820775388
 O          3.9878668849       -1.4783577744       -0.6979047035
 C          5.7039865924        0.4969615250       -0.2367464408
 C          6.6568634925       -0.4238261076        0.1562099526
 C          7.9482324911        0.0131364358        0.4066897764
 C          8.2623625851        1.3562536571        0.2637482752
 C          7.2953876973        2.2686505059       -0.1320643240
 C          6.0026765977        1.8384107032       -0.3852909203
 H          5.2208354574        2.5085970441       -0.7029404751
 H          7.5440401113        3.3115945095       -0.2448625601
 H          9.2678988148        1.6938707023        0.4591233287
 H          8.7030166603       -0.6939848609        0.7109935709
 H          6.3685215694       -1.4588310721        0.2461241641
 H          3.9885040738        0.3928107084        1.6978094586
 H          2.5325693327       -0.2741288780        3.4013937112
 H          0.3616678345       -1.2936439155        3.9821148664
 H         -1.2753316091       -1.8181003468        2.2134112932
 H         -1.1513755461       -2.5336922391       -0.4612628743
 C         -0.7219643295       -0.9265574065       -1.8037953741
 C          0.2179959715       -1.7013502513       -2.6760562231
 C         -1.2426468666       -1.6505765581       -3.0072341439
 H         -1.5583878638       -1.0711791418       -3.8618068520
 H         -1.8376955719       -2.5355324788       -2.8333208281
 H          0.9123209272       -1.1544411513       -3.2969842374
 H          0.6215194462       -2.6220744563       -2.2814297206
 H         -0.6805214278        0.1563635420       -1.8499370448
