  62
        -98.94006045
 C          2.2510030995        1.0685891905       -0.4047705694
 C          3.5614098495        1.0263727106        0.1347747706
 C          4.4143110496       -0.0794024494       -0.3174205393
 C          3.9243439297       -0.9652272294       -1.2035557494
 C          4.6597794197       -2.1744809893       -1.7030994593
 C          4.3665854098       -3.4012164594       -0.8280695694
 C          4.5237582997       -3.1423344094        0.6704588606
 H          3.7568587897       -2.4328712194        0.9908323906
 H          4.3230821997       -4.0844621594        1.1852354506
 C          5.9063560297       -2.6178014993        1.0829386307
 H          6.2352017697       -3.1612476993        1.9711513107
 H          6.6296656697       -2.8205354093        0.2924472907
 C          5.9424506996       -1.1290359593        1.4331332507
 H          5.1531518295       -0.9038525793        2.1547371007
 H          6.8993849196       -0.9168822392        1.9171101807
 C          5.8033553796       -0.1616642393        0.2507374307
 H          6.0385019895        0.8430167507        0.6135831207
 H          6.5230142996       -0.4240411793       -0.5270188793
 H          5.0338369398       -4.2097526793       -1.1321824793
 H          3.3380779198       -3.7200622794       -1.0138546394
 H          4.3304935198       -2.3798174694       -2.7230358394
 H          5.7278682697       -1.9663785793       -1.7104430493
 O          2.6690969797       -0.8842900894       -1.7136482994
 C          1.7921327496        0.1174694305       -1.3166400694
 O          0.6710845696        0.0470587505       -1.8553226795
 H         -1.3177364105        1.4422795704       -0.3776828795
 C         -0.9831827805        1.2358715304        0.6248681805
 C          0.3103969795        1.5460004504        1.0158862405
 C          0.7132323294        1.2349297905        2.3131239805
 C         -0.1573634706        0.6278400704        3.1965864005
 C         -1.4453159605        0.3121365804        2.8008238405
 C         -1.8577160805        0.6170176503        1.5090569405
 N         -3.1771819705        0.3365301503        1.1045388204
 S         -3.4293303004       -0.3406424997       -0.4253251196
 O         -2.6050958903       -1.5173592797       -0.5877371596
 O         -3.3141300704        0.6920529403       -1.4218937996
 C         -5.1419766604       -0.8167320498       -0.2615689496
 C         -5.4604324403       -2.1322269998        0.0171407703
 C         -6.7928407703       -2.4826447499        0.1701740103
 C         -7.7790330104       -1.5159052699        0.0454833603
 C         -7.4443690304       -0.1993170499       -0.2349640297
 C         -6.1142564704        0.1570087101       -0.3902489497
 H         -5.8062198905        1.1642102302       -0.6170705397
 H         -8.2140142404        0.5490279700       -0.3338257697
 H         -8.8150334604       -1.7909181000        0.1649094702
 H         -7.0554952403       -3.5060195299        0.3848087403
 H         -4.6598349003       -2.8502319198        0.0963409704
 H         -3.6718375105       -0.2096957297        1.7987855604
 H         -2.1278071505       -0.1657380697        3.4876771405
 H          0.1683173194        0.3933324904        4.1988635805
 H          1.7253437094        1.4698520405        2.6123547106
 C          1.3192861395        2.1677925305        0.0809663306
 H          1.9555460794        2.8399660405        0.6742494206
 C          0.7035778095        2.9611336305       -1.0500490394
 C          0.1010818894        4.3013441404       -0.7558088395
 C          1.3849756094        4.2089430905       -1.5228842694
 H          1.3738623194        4.4314902105       -2.5793222894
 H          2.2991755394        4.4975747805       -1.0249454794
 H         -0.7962335306        4.5869952304       -1.2831118595
 H          0.1443078593        4.6527128504        0.2640798405
 H          0.2237274995        2.3443247205       -1.8003476095
 O          3.9970013894        1.8752396406        0.9581877307
