  62
        -98.93376965
 C          2.4859296127        0.0976009476       -0.5864247352
 C          2.2254431160        0.6431038156        0.6938964549
 C          1.8555292531        2.0657123059        0.7182565510
 C          1.7922119903        2.7539544007       -0.4351428699
 C          1.4495559784        4.2114860856       -0.5500245360
 C         -0.0482653247        4.4400186016       -0.7879323376
 C         -0.9581029154        3.6834408580        0.1797991558
 H         -0.8878097827        2.6123428471       -0.0217318603
 H         -1.9849173134        3.9810783641       -0.0468413929
 C         -0.6702200321        3.9393868761        1.6655667239
 H         -1.6221584106        4.0720408866        2.1839220223
 H         -0.1051465990        4.8653422926        1.7823973503
 C          0.0663847374        2.7984725302        2.3710596965
 H         -0.4108377104        1.8483403764        2.1163419527
 H         -0.0317231890        2.9430632480        3.4504803078
 C          1.5635978871        2.6776689694        2.0588723891
 H          2.0075986011        2.0027080231        2.7963944758
 H          2.0424036726        3.6548751776        2.1537195420
 H         -0.2916469038        4.1179583083       -1.8034023790
 H         -0.2448815501        5.5119882055       -0.7143658404
 H          2.0067188300        4.6239857493       -1.3936818033
 H          1.7627429883        4.7189662302        0.3607410429
 O          2.0379245871        2.1910308472       -1.6480200520
 C          2.3638852515        0.8494250311       -1.7522560636
 O          2.5343436895        0.4500921654       -2.9254964979
 O          2.3113350112       -0.0142469976        1.7624578323
 C          2.8673680758       -1.3722189234       -0.7337082533
 C          1.8834522725       -2.1950302837        0.0664970705
 C          2.1447016308       -3.1943787671        0.9929583761
 C          1.1051956554       -3.8500478637        1.6362263067
 C         -0.2125290034       -3.5175058554        1.3990904618
 C         -0.4911007356       -2.5126524929        0.4765925434
 C          0.5459374626       -1.9019648841       -0.2010818900
 H          0.3132239920       -1.1491509270       -0.9417769650
 N         -1.8165190214       -2.0896972109        0.2687712182
 S         -2.1842595398       -0.7853006903       -0.7123967806
 O         -2.0395792815       -1.1284739535       -2.1133807718
 O         -1.4534464553        0.3644422368       -0.2475395846
 C         -3.9133943585       -0.6032198724       -0.3204689216
 C         -4.8626119752       -1.2093470400       -1.1211923547
 C         -6.2018774935       -1.0853412615       -0.7859840625
 C         -6.5673022070       -0.3623593011        0.3394599503
 C         -5.6036312147        0.2430769524        1.1323565127
 C         -4.2632709455        0.1225827330        0.8020476316
 H         -3.4789061953        0.5813004183        1.3818425197
 H         -5.8907556073        0.8077646154        2.0046483188
 H         -7.6098813002       -0.2670661509        0.5985363628
 H         -6.9532441476       -1.5513743766       -1.4028463815
 H         -4.5325206440       -1.7507420066       -1.9932477971
 H         -2.5060835636       -2.8254228363        0.2478800519
 H         -1.0160187112       -4.0114369315        1.9220262722
 H          1.3361204376       -4.6263650262        2.3501543972
 H          3.1508510029       -3.4725373404        1.2471996679
 H          2.6832273049       -1.6135725703       -1.7958025641
 C          4.3721110972       -1.4830594527       -0.5347562129
 C          5.0573735464       -1.6855844180        0.7794680394
 C          5.1395373588       -2.7459051345       -0.2799375073
 H          6.0802608610       -2.8644907016       -0.7976282576
 H          4.5996845774       -3.6697626121       -0.1563957166
 H          5.9402788962       -1.0963026208        0.9810972211
 H          4.4378345157       -1.8358244609        1.6483544132
 H          4.8550568408       -0.7793939981       -1.2110044315
