  62
        -98.93472763
 C         -0.9825799368       -1.5399212275       -0.2204179468
 C         -2.0296246494       -1.5636196286        0.7385637568
 C         -3.2545918079       -0.8262826348        0.3994707881
 C         -3.3075043800       -0.1488736316       -0.7621808046
 C         -4.5372300982        0.5222752847       -1.3066916915
 C         -4.6902230005        1.9872775542       -0.8781278124
 C         -4.4611020484        2.2268681739        0.6124350678
 H         -3.4255497254        1.9875578461        0.8568775677
 H         -4.5989362566        3.2942180341        0.7977804350
 C         -5.3891158050        1.4246286486        1.5336549556
 H         -6.2596900265        1.0780436334        0.9754205383
 H         -5.7531501594        2.0839046492        2.3245297804
 C         -4.7217498628        0.2313376139        2.2201234416
 H         -3.7877305496        0.5506963058        2.6892902534
 H         -5.3842778448       -0.1123317963        3.0191403412
 C         -4.4303721891       -0.9786780033        1.3239531415
 H         -4.1856813787       -1.8236087567        1.9746602974
 H         -5.3294630020       -1.2355383087        0.7580552711
 H         -5.6950131835        2.3172503196       -1.1491220226
 H         -3.9795745945        2.5948692311       -1.4420708704
 H         -4.4834815538        0.4789419158       -2.3961702911
 H         -5.4072044725       -0.0455959333       -0.9782711212
 O         -2.2402309408       -0.0377435164       -1.5908344426
 C         -1.0621644584       -0.7431499989       -1.3656869262
 O         -0.2037160636       -0.5668405300       -2.2461937999
 H          1.5965229166       -0.4053828318       -0.9267940872
 C          2.0886394092       -0.9354028350       -0.1264025025
 C          1.4586807874       -2.0216437638        0.4683262167
 C          2.1176203691       -2.6927587795        1.4948373328
 C          3.3858998123       -2.3140670819        1.8956011391
 C          4.0198052568       -1.2496495145        1.2808924296
 C          3.3625758589       -0.5555238836        0.2747298445
 N          3.9710083407        0.5618756816       -0.3595469816
 S          3.5448773803        2.0263213708        0.3463632512
 O          4.3766498260        3.0243364816       -0.2877786216
 O          3.6615464642        1.9430214415        1.7884169580
 C          1.8450926580        2.2527943354       -0.1008997705
 C          1.5395032857        2.8253768315       -1.3183919534
 C          0.2080366757        3.0033367236       -1.6545868081
 C         -0.7845755355        2.6007250860       -0.7756169361
 C         -0.4591573403        2.0129789189        0.4363809911
 C          0.8690999819        1.8383121656        0.7823194669
 H          1.1617796858        1.3898097426        1.7185145801
 H         -1.2312784844        1.6761309965        1.1114210558
 H         -1.8205663068        2.7362391348       -1.0405526001
 H         -0.0547788200        3.4471969173       -2.6012320496
 H          2.3442994631        3.1246345780       -1.9696388565
 H          4.9813495766        0.5018251844       -0.3722770102
 H          5.0116367145       -0.9462461715        1.5818195258
 H          3.8849288575       -2.8518073837        2.6873877531
 H          1.6264787295       -3.5245160030        1.9791322786
 C          0.1342566324       -2.5493076073       -0.0162079295
 H         -0.2528003083       -3.2059840770        0.7797683814
 C          0.3025481096       -3.4242471362       -1.2576410774
 C          1.4199760934       -3.2797419950       -2.2411613823
 C          1.3775459874       -4.4681208807       -1.3305068002
 H          1.1309107219       -5.4331010836       -1.7468752825
 H          2.0951475056       -4.5042634960       -0.5248945579
 H          1.1863843085       -3.4128969057       -3.2865687977
 H          2.1643701479       -2.5212209132       -2.0598166625
 H         -0.6629346251       -3.6998181051       -1.6729475772
 O         -1.9640734629       -2.2282506505        1.8085024547
