  62
        -98.94666415
 C          1.4660014279        1.4604417588       -0.4300083029
 C          2.7333784560        1.3897431808        0.2011354359
 C          3.5386064723        0.2033791986       -0.1062567223
 C          3.0532715379       -0.7331766125       -0.9417178776
 C          3.7617855346       -1.9919580383       -1.3648364669
 C          3.6295994511       -3.1556152728       -0.3724902425
 C          4.4273533302       -3.0032540678        0.9229409341
 H          5.4668394078       -2.7748608660        0.6856455890
 H          4.4143813142       -3.9736548241        1.4233608086
 C          3.8723699000       -1.9439719983        1.8856835476
 H          3.8367761623       -2.3531016674        2.8979156692
 H          2.8464142089       -1.6945155438        1.6046323178
 C          4.6914651063       -0.6548734768        1.9456786674
 H          5.6834053006       -0.8680591279        2.3503599050
 H          4.1921037783        0.0382307749        2.6275365336
 C          4.8559450371        0.0480028748        0.5918584862
 H          5.5573374897       -0.5022088094       -0.0350341431
 H          5.2575744179        1.0483307911        0.7714588725
 H          3.9755114971       -4.0581765726       -0.8816676621
 H          2.5742374560       -3.2932841240       -0.1295965977
 H          4.8175756840       -1.7771117719       -1.5331043388
 H          3.3156823608       -2.2950181101       -2.3144257795
 O          1.8373150731       -0.6230323071       -1.5364634458
 C          1.0064711398        0.4599237630       -1.2880674877
 O         -0.0799770356        0.4119331482       -1.8939948787
 O          3.1710619605        2.2779578180        0.9798691071
 C          0.5691187120        2.6431182699       -0.1002737425
 C         -0.5887025807        2.1044408893        0.7008112330
 C         -0.4243204527        1.8686399195        2.0630283433
 C         -1.4282918857        1.2743140972        2.8046198351
 C         -2.6109244002        0.8840827351        2.1994475616
 C         -2.7778402009        1.1048943003        0.8391894517
 C         -1.7826334904        1.7320443909        0.1024736222
 H         -1.9266994221        1.8894670533       -0.9542884712
 N         -3.9619775437        0.6694710010        0.2040633041
 S         -4.2452752708       -0.9821287103        0.2340899888
 O         -5.2946792393       -1.2083840791       -0.7339336488
 O         -4.5377888488       -1.3772125020        1.5894544744
 C         -2.7313742622       -1.7520290253       -0.3091261146
 C         -1.7367736340       -2.0116842049        0.6115775114
 C         -0.5493178648       -2.5718192498        0.1704582258
 C         -0.3777343642       -2.8626824671       -1.1732660423
 C         -1.3851472870       -2.5922277064       -2.0847674354
 C         -2.5718865004       -2.0261656751       -1.6519216013
 H         -3.3798923190       -1.8008078102       -2.3295937480
 H         -1.2427096665       -2.8093496242       -3.1310991081
 H          0.5499137722       -3.2929686045       -1.5169412160
 H          0.2398025572       -2.7724210630        0.8793184395
 H         -1.9057628496       -1.7783413240        1.6503372603
 H         -4.0265826840        0.9892923084       -0.7528522948
 H         -3.3940418551        0.3919666718        2.7532558930
 H         -1.2881038243        1.1045667495        3.8615818072
 H          0.5106870574        2.1444942447        2.5305539225
 H          1.1689371055        3.2935575129        0.5499060989
 C          0.1617462641        3.4241548795       -1.3310486567
 C         -0.4520135878        4.7815237324       -1.1658462596
 C          0.9370868962        4.6481819091       -1.7117027959
 H          1.1014840764        4.8478831892       -2.7599969053
 H          1.7649525737        4.9328748038       -1.0790776887
 H         -1.2431756489        5.0767308404       -1.8380900738
 H         -0.5681952398        5.1557820170       -0.1599523537
 H         -0.1985634721        2.7994433692       -2.1390899387
