  62
        -98.93518097
 C          1.9449311192       -1.1993052278       -0.0692387710
 C          2.7589490584       -0.6527244921       -1.0901327186
 C          3.9504238234        0.1108274410       -0.6709052453
 C          4.1744112301        0.2830870522        0.6448270156
 C          5.2873369636        1.0507031872        1.3069135309
 C          5.0750232145        2.5721835252        1.2431505597
 C          4.5963985097        3.0992999966       -0.1073198894
 H          3.6616796770        2.6025810760       -0.3748627938
 H          4.3738050553        4.1631365740        0.0116387414
 C          5.5946442583        2.9564348357       -1.2539000843
 H          6.5101350615        3.4953383303       -0.9997260349
 H          5.1555193681        3.4431909998       -2.1286419114
 C          5.9668762993        1.5245006461       -1.6437411040
 H          6.6716959669        1.0969293476       -0.9357394245
 H          6.4855553954        1.5745092814       -2.6056551293
 C          4.7799662308        0.5862562208       -1.8394484790
 H          4.0744599275        1.0432784874       -2.5427949821
 H          5.1350835188       -0.3232554498       -2.3395187892
 H          6.0099160074        3.0635044095        1.5177681692
 H          4.3219509813        2.8388094963        1.9889602018
 H          6.2425983954        0.7732174290        0.8712497235
 H          5.2984346964        0.7457663255        2.3556833967
 O          3.3323074200       -0.2131184893        1.5943735666
 C          2.2057660526       -0.9560143161        1.2797739742
 O          1.5477432389       -1.3202393398        2.2710012620
 O          2.4984652465       -0.7858734433       -2.3169514706
 C          0.7227922099       -1.9946576343       -0.4918120565
 C         -0.4934597847       -1.5101190690        0.2565142826
 C         -1.2716785893       -2.3179103871        1.0738570386
 C         -2.3646547142       -1.7922676585        1.7416994499
 C         -2.7088134267       -0.4607300590        1.6056739841
 C         -1.9439802480        0.3540620807        0.7795823583
 C         -0.8548017940       -0.1760573502        0.1060800472
 H         -0.2543723601        0.4622000622       -0.5310785215
 N         -2.2866678239        1.7071895105        0.6276310014
 S         -3.8989566129        2.1153462571        0.4583799791
 O         -3.8939821909        3.3605465973       -0.2774115572
 O         -4.5325109010        2.1525582099        1.7529640960
 C         -4.6161120938        0.8121036128       -0.5268840835
 C         -4.1119303033        0.6040485638       -1.7955148055
 C         -4.6361111919       -0.4213170282       -2.5653704400
 C         -5.6508057324       -1.2174407076       -2.0559522793
 C         -6.1502412376       -0.9921853932       -0.7828262674
 C         -5.6282899074        0.0311298714       -0.0076642187
 H         -5.9860610193        0.2401126470        0.9873384515
 H         -6.9409367380       -1.6109387366       -0.3902783265
 H         -6.0544705013       -2.0168972456       -2.6569096553
 H         -4.2493250368       -0.5971141812       -3.5563865254
 H         -3.3270302302        1.2446300363       -2.1648447861
 H         -1.7041536450        2.2139488546       -0.0214329355
 H         -3.5415429829       -0.0334134168        2.1402404957
 H         -2.9524512098       -2.4280896615        2.3858949343
 H         -1.0063444061       -3.3526363342        1.2127453380
 H          0.5888108695       -1.7355758092       -1.5557203154
 C          0.9073164560       -3.5035646672       -0.4393254103
 C          2.2639499080       -4.1204046394       -0.5984004276
 C          1.5558358178       -4.1976646745        0.7192923056
 H          1.1592129915       -5.1532446928        1.0302007706
 H          1.9108999515       -3.5870479694        1.5343081966
 H          2.3537203628       -5.0187304173       -1.1905830010
 H          3.1102340660       -3.4542319775       -0.6851634761
 H          0.0860532401       -4.0263524190       -0.9197919690
