  62
        -98.93495702
 C         -2.1855948534       -1.1122714805        0.5791043234
 C         -2.1455922858       -0.1824498927       -0.4875188861
 C         -2.9915914726        1.0194655967       -0.3399388189
 C         -3.6966456113        1.1945805218        0.7901856127
 C         -4.6516308037        2.3092795276        1.1171199733
 C         -6.0914081288        1.9222342978        0.7382450634
 C         -6.4855897715        2.2397244153       -0.7035654988
 H         -7.4730606465        1.8047728666       -0.8735481178
 H         -6.5793223760        3.3214497207       -0.8196485024
 C         -5.5264250482        1.7145619367       -1.7747948291
 H         -5.2204866649        0.6963316727       -1.5279207679
 H         -6.0718683337        1.6678605227       -2.7192102290
 C         -4.2859698852        2.6011016976       -1.9616488192
 H         -4.4434533094        3.5495356182       -1.4483177616
 H         -4.1669826258        2.8392770698       -3.0206754500
 C         -2.9608506935        1.9776798540       -1.4994612972
 H         -2.5213716413        1.4039129184       -2.3218464711
 H         -2.2475971288        2.7773623319       -1.2696224811
 H         -6.2111040858        0.8520825981        0.9259852049
 H         -6.7808788307        2.4488024566        1.4011378048
 H         -4.6027384124        2.4521023261        2.1987640426
 H         -4.3495244533        3.2312006951        0.6290918208
 O         -3.6601085851        0.3020789809        1.8187038146
 C         -2.9084209135       -0.8561016356        1.7460342228
 O         -2.9528483047       -1.5609477131        2.7745335503
 H          0.2847672279       -0.6689311641        1.6971820932
 C          0.7592115994       -1.1373969720        0.8420045382
 C          0.0450002300       -2.0775885560        0.1086235768
 C          0.6571398565       -2.6620241597       -0.9913113555
 C          1.9462880691       -2.3035702958       -1.3457669334
 C          2.6515260758       -1.3653992131       -0.6151270436
 C          2.0468033753       -0.7711785302        0.4849341134
 N          2.7568294819        0.1807464377        1.2406270926
 S          3.4553707932        1.4724097798        0.4225605258
 O          3.5571307597        2.5273563150        1.4087973458
 O          2.7380209507        1.7935014151       -0.7890856105
 C          5.0915036710        0.8870620957        0.0335801841
 C          5.8954945911        0.4658783051        1.0747205835
 C          7.1727193244        0.0095382491        0.7911187693
 C          7.6227378830       -0.0148508831       -0.5207149070
 C          6.8048385248        0.4155263865       -1.5541835540
 C          5.5253835155        0.8722141844       -1.2774077992
 H          4.8513453749        1.2108067668       -2.0482998028
 H          7.1564729047        0.3965904488       -2.5732293143
 H          8.6169835380       -0.3712962750       -0.7390759931
 H          7.8118782091       -0.3251793030        1.5921678461
 H          5.5081461753        0.5055192162        2.0790906909
 H          2.2445620398        0.5168677509        2.0437092565
 H          3.6525660926       -1.0795232214       -0.8937981214
 H          2.4075204282       -2.7593585283       -2.2086468599
 H          0.1153923488       -3.3760021213       -1.5893157774
 C         -1.3617541099       -2.3892817578        0.5584185121
 H         -1.3109777386       -2.7071603374        1.6133930021
 C         -2.0036456010       -3.5373138946       -0.2057741587
 C         -3.4937340704       -3.6392446786       -0.3333474081
 C         -2.6563319372       -3.3504390786       -1.5410517747
 H         -2.5410872954       -4.1298242027       -2.2801595856
 H         -2.6701336537       -2.3550896863       -1.9552425637
 H         -3.9508008837       -4.6130947494       -0.2416958031
 H         -4.0872668659       -2.8383818882        0.0838823780
 H         -1.4728165493       -4.4712588800       -0.0491460028
 O         -1.4494155224       -0.3361173981       -1.5238640058
