  62
        -98.94449416
 C          1.3083799289        1.7292926153       -0.6671411554
 C          2.5100874207        1.6271276015        0.0805996817
 C          3.4495170821        0.5805145516       -0.3302613157
 C          3.1617304963       -0.1886981045       -1.3952790559
 C          3.9995804146       -1.3200070315       -1.9245339624
 C          3.7431432400       -2.6487331988       -1.1995485135
 C          4.3266682918       -2.7386979454        0.2113139858
 H          4.2795524383       -3.7879420416        0.5098146966
 H          5.3787929019       -2.4513221189        0.1893293774
 C          3.5813267840       -1.8977562451        1.2576641125
 H          3.4235628912       -2.4962949532        2.1583662808
 H          2.5891231959       -1.6394161642        0.8768541390
 C          4.3097849608       -0.6224024435        1.6850893367
 H          5.2353289038       -0.8874191489        2.2016038466
 H          3.6700231308       -0.0859270987        2.3907778502
 C          4.6485838877        0.3337357317        0.5337931036
 H          4.9540767555        1.2913562326        0.9626682943
 H          5.4716740497       -0.0649711103       -0.0585939034
 H          4.1835257530       -3.4445930799       -1.8052042510
 H          2.6639259780       -2.8200064080       -1.1548522267
 H          5.0571571129       -1.0628450441       -1.8595519273
 H          3.7328769128       -1.4434190090       -2.9764001462
 O          2.0394274709       -0.0112557241       -2.1351067129
 C          1.0517510165        0.8932506822       -1.7547406412
 O          0.0416279116        0.8498857168       -2.4810218691
 O          2.7760620471        2.3770509978        1.0588413250
 C          0.2723207160        2.6946574902       -0.1183726835
 C         -0.4528393922        2.0418442232        1.0356626559
 C         -0.8163007689        2.7593514623        2.1691486770
 C         -1.4582678489        2.1276599294        3.2203278681
 C         -1.7349681864        0.7733218981        3.1707813033
 C         -1.3584363379        0.0418266793        2.0482677832
 C         -0.7425639898        0.6866017270        0.9867359227
 H         -0.4447227905        0.1110814320        0.1264424865
 N         -1.5586233683       -1.3393116493        1.9956637197
 S         -1.5688947560       -2.2430861677        0.5954121939
 O         -1.9450674483       -3.5645120312        1.0524751992
 O         -0.3020873606       -2.1479709982       -0.0845937226
 C         -2.9053321995       -1.5747434996       -0.3777855594
 C         -4.1865108097       -1.8499717624        0.0652612376
 C         -5.2670201425       -1.3436500953       -0.6359060566
 C         -5.0507690584       -0.5725577689       -1.7688639754
 C         -3.7616504387       -0.3100819756       -2.2020568201
 C         -2.6729026725       -0.8106312306       -1.5019828217
 H         -1.6645468159       -0.6006387251       -1.8247199327
 H         -3.5837397985        0.2868564078       -3.0820640520
 H         -5.8901161700       -0.1762715088       -2.3181881134
 H         -6.2705295264       -1.5507251630       -0.3006819708
 H         -4.3104331397       -2.4707332795        0.9376714134
 H         -2.1071884910       -1.7436885316        2.7376737974
 H         -2.2162733502        0.2786735427        4.0001534643
 H         -1.7364165089        2.6943402688        4.0958773635
 H         -0.5702268756        3.8087160380        2.2363187768
 H          0.8490956886        3.5375682713        0.2964031958
 C         -0.6753569001        3.2570361134       -1.1656096176
 C         -2.0928458843        2.7992777674       -1.3075239172
 C         -1.8013116723        4.1654548612       -0.7682632696
 H         -2.0113568638        5.0222197967       -1.3902741879
 H         -1.9669360291        4.3311906720        0.2847620525
 H         -2.4889452829        2.7043534730       -2.3061474347
 H         -2.4513036073        2.0428083763       -0.6259492736
 H         -0.1562951455        3.5010511810       -2.0863631444
