  62
        -98.94683574
 C          1.7795751009        1.3556249908       -0.0587959311
 C          2.9044627210        0.6862912710        0.4831694389
 C          3.3124846108       -0.5525276393       -0.1899909608
 C          2.6025135706       -0.9916785796       -1.2447691805
 C          2.8722217004       -2.2652690498       -1.9914660602
 C          2.0608034005       -3.4311098496       -1.4105639896
 C          2.1699558508       -3.5669436591        0.1082907904
 H          1.6745680109       -2.7114604190        0.5749194802
 H          1.5949349309       -4.4507293990        0.3954658308
 C          3.6052384309       -3.6959544690        0.6377883001
 H          3.6274071511       -4.4874033388        1.3900548204
 H          4.2716745408       -3.9984513193       -0.1711807399
 C          4.1569763811       -2.4345195188        1.3047239196
 H          3.4370790113       -2.0692702986        2.0421452296
 H          5.0693890212       -2.7054334386        1.8431282895
 C          4.5076829809       -1.2781488491        0.3600780791
 H          5.1448179407       -1.6430385594       -0.4482337809
 H          5.0706801111       -0.5374938789        0.9358925788
 H          1.0067377904       -3.2775673797       -1.6544553994
 H          2.3936307404       -4.3554612598       -1.8873982794
 H          3.9361588804       -2.4902767298       -1.9445166103
 H          2.5852955501       -2.1201775301       -3.0345731302
 O          1.5241886405       -0.3320680897       -1.7319074405
 C          1.0606770406        0.8287720905       -1.1322043507
 O          0.0274216205        1.2863164003       -1.6572776606
 O          3.5360154912        1.1056749413        1.4915541086
 C          1.2812742211        2.5995481010        0.6571935287
 C         -0.2030816489        2.4739316111        0.8946019790
 C         -1.1366454589        3.4451708711        0.5586781889
 C         -2.4862497689        3.2277502812        0.7813006293
 C         -2.9348310488        2.0319337013        1.3106652698
 C         -2.0068354587        1.0540882114        1.6499302299
 C         -0.6559177588        1.2950297913        1.4751513095
 H          0.0520701313        0.5248359014        1.7465926996
 N         -2.4001422186       -0.2084019684        2.1471682904
 S         -2.1183211889       -1.5063650087        1.1183452307
 O         -2.5919297988       -2.6708946685        1.8367931412
 O         -0.7365459790       -1.5222571189        0.7177641704
 C         -3.2003195492       -1.1929772392       -0.2655033591
 C         -4.4402502492       -1.8041354991       -0.2782488187
 C         -5.3264288395       -1.5065171295       -1.3001292585
 C         -4.9635096997       -0.5962462498       -2.2818787689
 C         -3.7178823596        0.0108604602       -2.2513834494
 C         -2.8220990194       -0.2849946295       -1.2340495895
 H         -1.8460154894        0.1748252205       -1.1975371199
 H         -3.4281565398        0.7197457100       -3.0104555597
 H         -5.6540083498       -0.3586904300       -3.0757942188
 H         -6.2946232095       -1.9801283094       -1.3259491382
 H         -4.6758400091       -2.5053737189        0.5061755216
 H         -3.3636248886       -0.2404977883        2.4536685406
 H         -3.9895813188        1.8496353114        1.4527839601
 H         -3.2000903789        3.9920708711        0.5146675792
 H         -0.8123265490        4.3654885409        0.1015507486
 H          1.7843182413        2.5659899213        1.6390305585
 C          1.6885583309        3.9135564308        0.0081824181
 C          2.8846281307        3.9931549105       -0.8914908722
 C          1.5090616106        4.1696826804       -1.4571471919
 H          1.2096423606        5.1588378003       -1.7713898721
 H          1.0909122005        3.3739661302       -2.0528126115
 H          3.5272655208        4.8573660105       -0.8137944326
 H          3.4120220107        3.0745563105       -1.1052594420
 H          1.5361188511        4.7584679110        0.6727798079
