  62
        -98.93430144
 C         -2.2318003987       -1.3302302391        0.1707128860
 C         -3.1859207372       -0.7225551100        1.0250046226
 C         -4.0535973965        0.2996232248        0.4208282960
 C         -3.8736498330        0.6269539298       -0.8713775069
 C         -4.6246713716        1.6949904607       -1.6147081379
 C         -4.0803581605        3.0868562705       -1.2348428935
 C         -5.0776861441        3.9707943534       -0.4850787908
 H         -4.5226692766        4.8221005376       -0.0850378016
 H         -5.8097768545        4.3596337431       -1.1958788984
 C         -5.8451086869        3.2942788039        0.6549537891
 H         -6.3018232066        4.0905773892        1.2463797661
 H         -6.6644857567        2.7021504023        0.2449059869
 C         -5.0138986651        2.4032478209        1.5870587940
 H         -3.9648702715        2.7005213098        1.5682268736
 H         -5.3685913235        2.5555764274        2.6084300163
 C         -5.1220090141        0.8946884282        1.2960958465
 H         -6.1054798759        0.6747164456        0.8715958649
 H         -5.0428628166        0.3507352812        2.2420576870
 H         -3.1823105427        2.9503437413       -0.6278041809
 H         -3.7673042271        3.6139747901       -2.1375213605
 H         -4.4816851490        1.5099887840       -2.6795456334
 H         -5.6860093132        1.6237553481       -1.3870126682
 O         -2.9110989964        0.0633250272       -1.6453696233
 C         -2.0623847697       -0.9223252431       -1.1533307687
 O         -1.2307909137       -1.3286587244       -1.9845514422
 O         -3.3050781175       -1.0213517526        2.2439410541
 C         -1.3320225743       -2.3978573390        0.7686118830
 C          0.1077995992       -2.1161640080        0.4198143411
 C          0.9110617393       -2.9817910720       -0.3094752989
 C          2.2186829975       -2.6387263400       -0.6063214929
 C          2.7542289118       -1.4373243713       -0.1807117446
 C          1.9578849097       -0.5610305413        0.5451912450
 C          0.6502210407       -0.9090246670        0.8443437111
 H          0.0266341508       -0.2222073273        1.4049490102
 N          2.4943087333        0.6583895868        0.9958842142
 S          3.3269305694        1.6215105620       -0.0989500861
 O          3.2346529154        2.9611479759        0.4419010996
 O          2.8478598856        1.4409706885       -1.4495578872
 C          5.0104388307        1.0573704424        0.0385094784
 C          5.7035869860        0.6802435753       -1.0949160965
 C          7.0161039225        0.2526297222       -0.9664780966
 C          7.6089212999        0.2110363832        0.2861239335
 C          6.8996435269        0.5956314279        1.4143378004
 C          5.5879432591        1.0254696670        1.2928252875
 H          5.0036256403        1.3352327464        2.1430097458
 H          7.3637180856        0.5613937416        2.3868045934
 H          8.6296040964       -0.1236009875        0.3835183707
 H          7.5685525205       -0.0464026506       -1.8427338604
 H          5.1984353886        0.7225486496       -2.0469333771
 H          1.8409764869        1.2151285807        1.5279847253
 H          3.7700182450       -1.1655982267       -0.4169530842
 H          2.8297508797       -3.3169749861       -1.1821491164
 H          0.5051966791       -3.9121815362       -0.6704517901
 H         -1.4455194687       -2.2671527722        1.8581383051
 C         -1.7615958601       -3.8244338921        0.4620774347
 C         -3.2014635661       -4.1598533068        0.2163494451
 C         -2.2081368947       -4.2591824287       -0.9003635980
 H         -1.9211412862       -5.2428694914       -1.2424618838
 H         -2.2307986404       -3.5156392577       -1.6813278459
 H         -3.5956120373       -5.0714265400        0.6397145122
 H         -3.9096340792       -3.3440200015        0.1995603891
 H         -1.1943098963       -4.5472216028        1.0404443121
