  62
        -98.93842907
 C          2.7279777418        0.8704960422       -0.3179853620
 C          3.1959414699        0.0261133901        0.7225917692
 C          3.3953221065       -1.3847067955        0.3798463693
 C          3.1490662582       -1.8047071464       -0.8738766556
 C          3.3073923261       -3.2101249449       -1.3863250482
 C          2.0954611967       -4.1095758815       -1.1062133097
 C          1.9319217432       -4.5440550890        0.3508247578
 H          1.1892373058       -5.3440976266        0.3642537628
 H          2.8713755068       -4.9627875059        0.7134372881
 C          1.4652793168       -3.4273239630        1.2956579457
 H          1.0325347908       -2.6090314362        0.7129507364
 H          0.6654430003       -3.8031088718        1.9385085073
 C          2.5566413370       -2.8712211266        2.2113860614
 H          2.1237808084       -2.0558847488        2.7972329383
 H          2.8818630257       -3.6499832741        2.9050140661
 C          3.7886912051       -2.3273436573        1.4762453141
 H          4.3823516271       -3.1495057508        1.0774297473
 H          4.3954532274       -1.7688115407        2.1931265913
 H          1.1897932934       -3.5906718563       -1.4309141203
 H          2.2053447928       -5.0060931873       -1.7209204562
 H          4.2032758748       -3.6592625984       -0.9568748147
 H          3.4379263251       -3.1346127941       -2.4679733223
 O          2.7281526783       -0.9625775608       -1.8519765930
 C          2.4600809169        0.3779501126       -1.5952218441
 O          2.0085070610        0.9890159286       -2.5829917568
 O          3.4390726970        0.4411949018        1.8871899931
 C          2.4389838573        2.3121743590        0.0672822718
 C          1.0308667482        2.3905511351        0.6017402439
 C          0.7484192871        2.9362450317        1.8473751026
 C         -0.5416818174        2.9152476193        2.3509782904
 C         -1.5721580937        2.3426542150        1.6270993213
 C         -1.2995936166        1.8036244777        0.3779910315
 C         -0.0120884000        1.8383291918       -0.1300152606
 H          0.1900544668        1.4065563826       -1.1006866050
 N         -2.3434252664        1.1703702405       -0.3482056041
 S         -2.6187677992       -0.4265062642        0.1533097005
 O         -2.3589229239       -0.5222537029        1.5671504880
 O         -1.8850873480       -1.3326594177       -0.7069967281
 C         -4.3666821462       -0.5822138737       -0.1550945052
 C         -5.2449582028       -0.0822453607        0.7864553044
 C         -6.6059253652       -0.1483885281        0.5356967308
 C         -7.0631933763       -0.7083586095       -0.6480449707
 C         -6.1692320495       -1.2074322708       -1.5829575466
 C         -4.8063273775       -1.1428803903       -1.3379061630
 H         -4.0760421573       -1.5246835142       -2.0331503883
 H         -6.5271042356       -1.6445833962       -2.5012600467
 H         -8.1229005426       -0.7576293750       -0.8426469273
 H         -7.3040161525        0.2366126537        1.2614477773
 H         -4.8428575382        0.3353464914        1.6946603442
 H         -2.1235926934        1.1299377455       -1.3358865032
 H         -2.5738836103        2.2916942873        2.0203834463
 H         -0.7423822654        3.3359464768        3.3244613245
 H          1.5533401894        3.3531354958        2.4348885051
 H          3.1222145574        2.5247214013        0.9047331148
 C          2.7314824611        3.3203139446       -1.0329700456
 C          1.6685230241        4.1107419173       -1.7300009131
 C          2.5815646874        4.7869639827       -0.7547544888
 H          3.3334416214        5.4642841152       -1.1297580207
 H          2.1668725435        5.0687220050        0.2013696512
 H          1.7980113074        4.2978150293       -2.7849687979
 H          0.6412161365        3.9530388313       -1.4407801096
 H          3.5804466703        3.0230206406       -1.6393786633
