  62
        -98.94033656
 C         -1.8836053001       -1.4064860202        0.1987103298
 C         -1.7314723097       -0.0214544504       -0.0337517207
 C         -2.9212016594        0.8191776201        0.1966687390
 C         -4.0691701296        0.2433708005        0.6005454991
 C         -5.4165598695        0.8400007410        0.9510766789
 C         -5.7452832790        2.2880693010        0.5984561583
 C         -5.8849027489        2.5638219305       -0.8985312718
 H         -6.0077578786        3.6399156105       -1.0389352122
 H         -6.7948186190        2.0761126706       -1.2573454417
 C         -4.7293149890        2.0774182398       -1.7695377616
 H         -4.9685380589        2.3201459395       -2.8085588117
 H         -4.6525245493        0.9900779898       -1.7042377312
 C         -3.3677116988        2.6914808096       -1.4514194717
 H         -3.4389973385        3.7803843596       -1.4859038221
 H         -2.6736892889        2.3767877291       -2.2357033716
 C         -2.7563790990        2.2818963999       -0.1007786015
 H         -3.1504293489        2.8876591203        0.7116259382
 H         -1.6783336790        2.4601889196       -0.1529798316
 H         -5.0172969089        2.9587000909        1.0451324281
 H         -6.7085895190        2.5108530014        1.0652861482
 H         -5.5216084895        0.7148873014        2.0344789089
 H         -6.1621953096        0.1819424611        0.4934406291
 O         -4.1635902000       -1.1026453894        0.8160897596
 C         -3.0922458602       -1.9549476897        0.6216990100
 O         -3.3360453706       -3.1548416996        0.8610480204
 O         -0.6487713095        0.4995535492       -0.4074630408
 C         -0.7101213903       -2.3436523406       -0.0201712898
 C          0.4665799998       -1.8981667207        0.8132893601
 C          0.2775457798       -1.6777527401        2.1760752100
 C          1.3234830499       -1.2664468101        2.9782283999
 C          2.5807457399       -1.0573526907        2.4372921299
 C          2.7825896199       -1.2821324512        1.0818332900
 C          1.7321151698       -1.7127496212        0.2807945801
 H          1.9205082698       -1.8751641817       -0.7666822998
 N          4.0549004400       -1.1058942318        0.5066481200
 S          4.2531219504       -0.0950518923       -0.8133687404
 O          3.4474757103       -0.5559698125       -1.9132721602
 O          5.6825631404       -0.0672677128       -1.0366052603
 C          3.7155229508        1.5105834780       -0.2502686510
 C          4.6797082110        2.4296575779        0.1186726787
 C          4.2829963213        3.6646994282        0.6037902383
 C          2.9320566114        3.9559079186        0.7209637581
 C          1.9788534512        3.0199295887        0.3522493384
 C          2.3665178008        1.7824478384       -0.1394021511
 H          1.6301067907        1.0493522185       -0.4287627709
 H          0.9258178912        3.2349005391        0.4427260783
 H          2.6195856617        4.9161655888        1.1003365477
 H          5.0246357415        4.3933532681        0.8893152580
 H          5.7175805309        2.1601476176        0.0064978589
 H          4.7821179400       -0.9133233018        1.1814759999
 H          3.3984051100       -0.7279748107        3.0604482898
 H          1.1589573699       -1.0990211797        4.0319766699
 H         -0.7076734603       -1.8320246297        2.5956472900
 H         -1.0351371206       -3.3294711204        0.3439656506
 C         -0.3986974403       -2.4515152213       -1.4984104897
 C          0.2230271294       -3.6982945216       -2.0490507992
 C         -1.2109819705       -3.3808015714       -2.3469790794
 H         -1.4749654904       -3.0693621016       -3.3466197196
 H         -1.9779354507       -3.9597627610       -1.8527118193
 H          0.9482737195       -3.6023255921       -2.8433449393
 H          0.4310539991       -4.5008574915       -1.3574764889
 H         -0.1069219900       -1.5038597615       -1.9378483001
