  62
        -98.93894962
 C          1.9656479991        1.3188860304        0.5408727337
 C          2.1661567323        0.6064887740       -0.6692969486
 C          3.0308256361       -0.5806475244       -0.5726450004
 C          3.5005245364       -0.9799750579        0.6215177379
 C          4.4136256771       -2.1490971903        0.8732663017
 C          3.6973570043       -3.5043253462        0.9490326711
 C          3.2032162411       -4.0580398159       -0.3880942881
 H          4.0193293024       -4.0415351171       -1.1111506365
 H          2.9388259345       -5.1041053464       -0.2210081108
 C          1.9825329701       -3.3286288332       -0.9660716530
 H          1.2604055128       -4.0652919500       -1.3232770424
 H          1.4938776254       -2.7518258458       -0.1775450573
 C          2.2905872686       -2.3998565321       -2.1399484937
 H          2.6355461788       -2.9882202254       -2.9933428187
 H          1.3676075661       -1.8918347468       -2.4299120482
 C          3.3394589203       -1.3239366988       -1.8377960287
 H          3.3300461714       -0.6007215602       -2.6573305023
 H          4.3318408951       -1.7712758524       -1.7793169698
 H          4.4045943702       -4.2203047084        1.3742237507
 H          2.8567304572       -3.4172108149        1.6411371538
 H          5.1816472107       -2.1853757380        0.0996043995
 H          4.8986816045       -1.9616353832        1.8337873425
 O          3.1995618734       -0.3261017103        1.7756378905
 C          2.4409275557        0.8319867924        1.7625652031
 O          2.2538527688        1.3268965739        2.8933577886
 O          1.6804896026        0.9331642831       -1.7805143417
 C          1.1833522590        2.6206394873        0.6077153430
 C         -0.1669316642        2.4735064037       -0.0471880960
 C         -0.4286438370        2.9087335641       -1.3394981467
 C         -1.6845900840        2.7323059285       -1.8929009638
 C         -2.7074965941        2.1477997795       -1.1673889284
 C         -2.4583342861        1.7153264594        0.1295578009
 C         -1.1898817922        1.8696356956        0.6731515731
 H         -0.9905991348        1.5265795143        1.6811235114
 N         -3.4988901932        1.1769418754        0.9093872741
 S         -4.4789081978       -0.0577384606        0.3621428520
 O         -5.0906361600        0.3316124569       -0.8821037762
 O         -5.3743755492       -0.3397991852        1.4598014938
 C         -3.3981126760       -1.4523598011        0.1048342153
 C         -2.5795283905       -1.4757237788       -1.0071498775
 C         -1.7201472449       -2.5491174212       -1.1793877110
 C         -1.6939749022       -3.5725707022       -0.2443017221
 C         -2.5192437351       -3.5317581578        0.8687418345
 C         -3.3777308787       -2.4595943976        1.0491819121
 H         -4.0410238331       -2.3877448776        1.8961243130
 H         -2.4953320178       -4.3292352199        1.5939799164
 H         -1.0260099121       -4.4076615726       -0.3839126163
 H         -1.0724413666       -2.5802676050       -2.0409513842
 H         -2.6254645269       -0.6657545255       -1.7171330339
 H         -3.2361472332        1.0030951587        1.8686053843
 H         -3.6915474053        2.0160716870       -1.5872123279
 H         -1.8745430242        3.0639520318       -2.9026023353
 H          0.3603226367        3.3620776517       -1.9164028410
 H          1.0136664717        2.7876147349        1.6834978735
 C          1.9454629496        3.8385362578        0.1032947760
 C          3.3994064164        4.0087861922        0.4269803028
 C          2.9673976001        3.7878685010       -0.9899969428
 H          3.0173531511        4.6220675802       -1.6746713152
 H          3.1756578305        2.8356190161       -1.4499343904
 H          3.7547617773        4.9866283328        0.7150196940
 H          3.8892721955        3.1957105446        0.9438785003
 H          1.3341115010        4.7348999435        0.1505758284
