  62
        -98.94605529
 C         -1.5183956265       -1.1073956688        0.2060110992
 C         -2.5474126254       -0.6324957997        1.0563184028
 C         -3.0865847976        0.6968726371        0.7454690077
 C         -2.5433059129        1.4058472313       -0.2606237165
 C         -3.0183983204        2.7559592084       -0.7121059478
 C         -4.0814217084        2.6350263461       -1.8132675417
 C         -5.2051607387        1.6531805170       -1.4812488426
 H         -5.9100081619        1.6713179633       -2.3151473465
 H         -4.7919015520        0.6432353691       -1.4309295197
 C         -5.9504729433        1.9598287698       -0.1748382069
 H         -5.7616164027        2.9909250105        0.1259842599
 H         -7.0236305854        1.8646539737       -0.3527470004
 C         -5.6070301850        1.0241993660        0.9857825688
 H         -5.7056082334       -0.0147214277        0.6608579412
 H         -6.3372034217        1.1881094397        1.7827037680
 C         -4.2130782466        1.2063157603        1.6000095372
 H         -4.0563337768        2.2564383519        1.8565641082
 H         -4.1759737236        0.6199602491        2.5231422947
 H         -4.5027186474        3.6253207676       -1.9953421844
 H         -3.5924380612        2.2992412375       -2.7305664492
 H         -3.4230935122        3.2951285469        0.1425008246
 H         -2.1599021577        3.3069470039       -1.1004887296
 O         -1.5185899329        0.9449780976       -1.0179163132
 C         -0.9731839397       -0.3111860342       -0.8015923118
 O         -0.0323766437       -0.5899298510       -1.5693161481
 H          0.5323281609       -0.6848679736        1.8175386786
 C          1.1590605152       -1.3772361253        1.2730948737
 C          0.5781868206       -2.3903117539        0.5187587250
 C          1.4121149582       -3.2595436510       -0.1723727816
 C          2.7873184378       -3.1061075503       -0.1191879673
 C          3.3575039733       -2.0715629403        0.5986873384
 C          2.5304633607       -1.1955009172        1.2920705098
 N          3.0505231594       -0.0913725503        2.0052458346
 S          2.7136811469        1.4124873505        1.3389288035
 O          3.3731170205        2.3677867785        2.2047048033
 O          1.2911131848        1.5704723894        1.1815285197
 C          3.5489518782        1.3739427268       -0.2373381187
 C          4.8202473025        1.9110625687       -0.3176133223
 C          5.5189156595        1.8096855275       -1.5091402971
 C          4.9412203414        1.1639378433       -2.5923638550
 C          3.6671488935        0.6273830279       -2.4931126952
 C          2.9579533389        0.7285683363       -1.3049756568
 H          1.9627665933        0.3209799487       -1.2104608525
 H          3.2113257068        0.1234390022       -3.3302675381
 H          5.4857846441        1.0784617608       -3.5194930282
 H          6.5089978295        2.2290186149       -1.5881462458
 H          5.2260577536        2.4044532605        0.5509795357
 H          4.0462952364       -0.1537629982        2.1730709761
 H          4.4283419838       -1.9343213553        0.6181662531
 H          3.4215477009       -3.7896455151       -0.6625317475
 H          0.9870736889       -4.0481981479       -0.7709677490
 C         -0.9279238255       -2.4737761513        0.5056943142
 H         -1.2605576237       -2.6915079610        1.5353927418
 C         -1.4682926316       -3.5950312985       -0.3702848624
 C         -2.7869660190       -3.4639170327       -1.0704870016
 C         -1.5167914634       -3.4825232635       -1.8637577529
 H         -1.2953649871       -4.3606650064       -2.4524403272
 H         -1.1705996819       -2.5601998543       -2.3026414658
 H         -3.4346575804       -4.3270019270       -1.1087943205
 H         -3.3150772229       -2.5262888149       -0.9722909188
 H         -1.2431431624       -4.5753855523        0.0380462178
 O         -2.9908709671       -1.2920549628        2.0360259993
