  62
        -98.93135723
 C         -2.2387134947       -0.7618545516       -0.0894902548
 C         -3.5858834555       -1.1625737220        0.0990340695
 C         -4.5158250206       -0.1277439367        0.5658764491
 C         -4.0476177806        1.1094146780        0.8109622258
 C         -4.8902155307        2.2744837371        1.2414502667
 C         -5.3991851937        3.0687753064        0.0304171480
 C         -6.0350133274        2.2001109664       -1.0550707561
 H         -6.3835840963        2.8698964612       -1.8441898071
 H         -5.2659835793        1.5600967709       -1.4939023062
 C         -7.2027806218        1.3298679469       -0.5696661417
 H         -7.5789002546        1.7114205876        0.3801504790
 H         -8.0169690619        1.4019104601       -1.2937792869
 C         -6.8682710528       -0.1556093179       -0.4221529243
 H         -6.4041682507       -0.5196491501       -1.3422139725
 H         -7.8048968031       -0.7033259096       -0.2889665454
 C         -5.9544228091       -0.5200478716        0.7546352302
 H         -6.3523487173       -0.0911108703        1.6763881323
 H         -5.9566576804       -1.6095200097        0.8523961161
 H         -4.5552389117        3.6044823400       -0.4105660605
 H         -6.1239927818        3.8058156378        0.3809446388
 H         -4.2780197984        2.9294392178        1.8636679377
 H         -5.7303106953        1.9103754596        1.8296946098
 O         -2.7452990146        1.4520916625        0.6468018991
 C         -1.8065182818        0.5374981263        0.1790546309
 O         -0.6619355161        1.0115025953        0.0645583524
 O         -3.9904404639       -2.3378003334       -0.1126924412
 C         -1.2643540148       -1.8194806858       -0.5951885593
 C         -0.0619725964       -1.8811420607        0.3112401647
 C         -0.2216054979       -2.5897271457        1.5029790831
 C          0.7957318838       -2.6672590997        2.4327522531
 C          2.0063026574       -2.0413649331        2.1956111058
 C          2.1838030854       -1.3363207367        1.0119147994
 C          1.1554569776       -1.2587223509        0.0809135368
 H          1.3238933454       -0.6639417284       -0.7957376801
 N          3.4323539532       -0.7471552781        0.7302527133
 S          3.5740596490        0.7877725509        0.0420296038
 O          3.1321556858        1.8005384718        0.9765690865
 O          2.9800843534        0.7943810125       -1.2682910881
 C          5.3508729373        0.8518483596       -0.1158507080
 C          5.9401909449        0.1511867493       -1.1509270589
 C          7.3203390710        0.1678734440       -1.2723992993
 C          8.0853143928        0.8812246966       -0.3613432766
 C          7.4802458494        1.5816544009        0.6709545011
 C          6.0998294770        1.5673765593        0.7982750985
 H          5.5855376735        2.1037874899        1.5795621298
 H          8.0769037932        2.1380097022        1.3758092828
 H          9.1594502010        0.8934731999       -0.4583788205
 H          7.7938356449       -0.3736227176       -2.0754395443
 H          5.3046060854       -0.3809338879       -1.8392747980
 H          4.0497003384       -0.7890749826        1.5316097163
 H          2.8051924255       -2.0968811729        2.9199547234
 H          0.6455502975       -3.2152947358        3.3507689048
 H         -1.1699338512       -3.0720422199        1.6980824504
 H         -1.8095726659       -2.7664184617       -0.4478507542
 C         -1.0965000684       -1.7001992726       -2.1042715899
 C         -0.3328583271       -0.6345471230       -2.8289772162
 C          0.1449866021       -2.0564112620       -2.8634057935
 H          0.0345696276       -2.6067362191       -3.7861357387
 H          1.0302344248       -2.3108180995       -2.3029177791
 H         -0.7797248540       -0.2258129142       -3.7250886516
 H          0.2118003289        0.1021812811       -2.2597120394
 H         -2.0322369982       -1.9839300431       -2.5821706596
