  62
        -98.94031896
 C         -2.6511842556       -1.1376058957        0.2648075909
 C         -2.5582074688       -0.2966559957       -0.8723704545
 C         -3.3860173182        0.9176149246       -0.8350615758
 C         -4.1713824863        1.1672102120        0.2272406293
 C         -5.0824423155        2.3523276037        0.3982877217
 C         -4.3786098153        3.6042789247        0.9400554158
 C         -3.4493666700        4.3087904590       -0.0494951136
 H         -3.9874057246        4.4990905124       -0.9785624428
 H         -3.1956690175        5.2779308309        0.3846706689
 C         -2.1501853915        3.5481655062       -0.3513603943
 H         -1.9854793348        2.7894367216        0.4177427851
 H         -1.3046299152        4.2381069682       -0.3039343158
 C         -2.1121874487        2.8774418217       -1.7248072825
 H         -1.1681196053        2.3337805359       -1.8152073595
 H         -2.1390066068        3.6407643896       -2.5054230500
 C         -3.2547843088        1.8840086034       -1.9731737526
 H         -4.1915656944        2.4174819789       -2.1320082971
 H         -3.0193553279        1.3098492823       -2.8724476227
 H         -5.1558935165        4.3102381002        1.2414996779
 H         -3.8161470265        3.3286156854        1.8354444888
 H         -5.5633349341        2.5857608964       -0.5519174921
 H         -5.8515718296        2.0533839044        1.1137973242
 O         -4.2334229432        0.3335835064        1.3006819676
 C         -3.4508460428       -0.8090918076        1.3616523422
 O         -3.5513941246       -1.4389076994        2.4346288872
 O         -1.8289341939       -0.5310725018       -1.8684193969
 C         -1.8066214492       -2.3939120023        0.3924333249
 C         -0.3865725411       -2.0967292122       -0.0272122009
 C          0.3009292077       -2.8106308334       -0.9987352356
 C          1.6042600828       -2.4746256745       -1.3224746698
 C          2.2470738129       -1.4252133966       -0.6931543107
 C          1.5714324147       -0.7077344939        0.2857113489
 C          0.2716789456       -1.0556638859        0.6174317421
 H         -0.2551487145       -0.4957652648        1.3822560752
 N          2.2059202507        0.3759414455        0.9173848963
 S          3.7546070596        0.1587804787        1.5253456223
 O          3.9805995308       -1.2118139937        1.9224969341
 O          3.8952020677        1.1584913503        2.5619199614
 C          4.8156227611        0.5851430408        0.1610426137
 C          4.6376883110        1.8152998775       -0.4409444430
 C          5.4606171346        2.1675618392       -1.4986352890
 C          6.4439942732        1.2903735490       -1.9315072458
 C          6.6123357857        0.0605408305       -1.3139773469
 C          5.7916143801       -0.2985438690       -0.2559871402
 H          5.8814266776       -1.2463567986        0.2504643259
 H          7.3774677385       -0.6196459780       -1.6520531155
 H          7.0826494243        1.5672949848       -2.7553424827
 H          5.3318727651        3.1227563050       -1.9817837126
 H          3.8636103185        2.4683769252       -0.0735854576
 H          1.6230577170        0.8565814648        1.5868745756
 H          3.2580186687       -1.1552970879       -0.9513187889
 H          2.1242280991       -3.0337240284       -2.0854168541
 H         -0.1894053424       -3.6158419959       -1.5201633375
 H         -1.7924570948       -2.6173446857        1.4729247769
 C         -2.3971103618       -3.6181403972       -0.2911924136
 C         -3.8744581291       -3.7422468438       -0.5127541057
 C         -2.9536946851       -3.5684871125       -1.6811204675
 H         -2.7868922500       -4.4161918880       -2.3296151548
 H         -2.9373886059       -2.6180314518       -2.1897503787
 H         -4.3358204113       -4.7058298940       -0.3560345838
 H         -4.4970327897       -2.9088697674       -0.2202604897
 H         -1.8800384872       -4.5287622809       -0.0041146618
