  62
        -98.93925833
 C         -2.4097280101       -0.8724815291        0.2203171461
 C         -2.7299778542        0.4427100244        0.6450358116
 C         -3.7947297725        1.1294776392       -0.0954953792
 C         -4.3708329006        0.5069485643       -1.1399125341
 C         -5.5027747246        1.0626139864       -1.9535219062
 C         -6.8611411403        0.6373253214       -1.3784615280
 C         -6.9949525959        0.8699484924        0.1264597485
 H         -8.0023588421        0.5623961342        0.4149480731
 H         -6.2960044065        0.2152238325        0.6519312404
 C         -6.7573193025        2.3207874443        0.5681012550
 H         -7.5365731410        2.6027676836        1.2792889882
 H         -6.8447571194        2.9885791861       -0.2896454967
 C         -5.4146256483        2.5609146603        1.2610120730
 H         -5.4413743758        3.5524671458        1.7208355156
 H         -5.2808570284        1.8317978188        2.0641904530
 C         -4.1776025406        2.5111084692        0.3550181916
 H         -4.3234570300        3.1696392990       -0.5038726410
 H         -3.3262071608        2.8848096228        0.9317558428
 H         -7.0011563572       -0.4282774948       -1.5738645569
 H         -7.6450529723        1.1852863620       -1.9042782248
 H         -5.4285434413        2.1481910083       -1.9747825670
 H         -5.4135887737        0.6812868889       -2.9720907645
 O         -4.0106934270       -0.7347970050       -1.5460221380
 C         -3.0260236652       -1.4608100299       -0.8851121130
 O         -2.8177238274       -2.5823152453       -1.3809613813
 H          0.7491284060       -0.2516973905        2.0823868951
 C          0.9711125541       -0.5914959801        1.0797819979
 C          0.0130974303       -1.3053645059        0.3766972519
 C          0.2957119416       -1.6996056615       -0.9284000040
 C          1.5190652121       -1.4000369257       -1.4978663525
 C          2.4791215302       -0.6984635631       -0.7877372955
 C          2.1967628399       -0.2776552407        0.5041045103
 N          3.1605978377        0.4361697055        1.2326544953
 S          4.0263982212        1.6574517019        0.4754613178
 O          4.4631977318        2.5239824550        1.5482083622
 O          3.2643602621        2.2775914620       -0.5832820107
 C          5.4428341239        0.8131143700       -0.1980767701
 C          6.1917464527        0.0187978418        0.6481036530
 C          7.3029855053       -0.6361609847        0.1420659906
 C          7.6472238162       -0.4840285419       -1.1928923088
 C          6.8878204895        0.3203440362       -2.0285232888
 C          5.7739444250        0.9772484501       -1.5287654371
 H          5.1508841599        1.6080219207       -2.1430440112
 H          7.1572049917        0.4382177226       -3.0658517409
 H          8.5125644481       -0.9951324517       -1.5843757822
 H          7.8961425175       -1.2625049375        0.7887360412
 H          5.8932698644       -0.0707901170        1.6791540444
 H          2.8499669454        0.7264554589        2.1485559796
 H          3.4307434329       -0.4589463334       -1.2330088149
 H          1.7292843018       -1.7150354280       -2.5088162049
 H         -0.4583698865       -2.2340576202       -1.4864764097
 C         -1.3262825315       -1.5923424096        1.0057340198
 H         -1.3355204381       -1.1063329792        1.9940330655
 C         -1.6087238605       -3.0735164757        1.2185469205
 C         -0.6725394138       -4.1650781993        0.8007993678
 C         -0.8283441925       -3.8323103319        2.2517654385
 H         -1.3519296570       -4.5240857483        2.8940504142
 H         -0.0135794702       -3.3122114430        2.7333646060
 H         -1.1093875958       -5.0784118237        0.4267163835
 H          0.2505609212       -3.8927380876        0.3142859522
 H         -2.6661835237       -3.3032781599        1.1481400387
 O         -2.1529445010        1.0110253060        1.6123033735
