  62
        -98.94416805
 C         -2.6258833810       -1.1030557000        0.2024536826
 C         -2.7542355833       -0.3052144221       -0.9603621069
 C         -3.5845135266        0.9000393777       -0.8192598644
 C         -4.1612911192        1.1697237607        0.3661156371
 C         -4.9833436645        2.3901572552        0.6620470381
 C         -4.1106227609        3.5295863916        1.2070796689
 C         -2.8570673328        3.7999435090        0.3746742158
 H         -2.3343301800        4.6399315230        0.8375557470
 H         -2.1928080616        2.9346032229        0.4386081759
 C         -3.1316830844        4.1177899595       -1.1018987049
 H         -4.1757644008        4.4053821787       -1.2300718359
 H         -2.5209600206        4.9743794544       -1.3944697537
 C         -2.7969790593        2.9800925279       -2.0684504908
 H         -1.7808658858        2.6240686600       -1.8794151589
 H         -2.8192808150        3.3807904003       -3.0852325296
 C         -3.7436838850        1.7737223825       -2.0316434768
 H         -4.7768097074        2.1126716760       -2.1303058081
 H         -3.5049447618        1.1390243798       -2.8899134789
 H         -4.7174748896        4.4353136515        1.2584147140
 H         -3.7987495708        3.2721681995        2.2222157715
 H         -5.4898230335        2.7091808366       -0.2466872985
 H         -5.7316197605        2.1274597342        1.4116970298
 O         -4.0156602666        0.3772073957        1.4599314869
 C         -3.2356469764       -0.7672055748        1.4099488353
 O         -3.1603955795       -1.3873341544        2.4914138888
 H         -0.3168122182       -0.3448420649        1.0989956755
 C          0.2492183439       -0.9287290970        0.3818844591
 C         -0.3569529603       -2.0224073172       -0.2244928612
 C          0.3874901826       -2.7734227926       -1.1243116045
 C          1.6932347849       -2.4208638668       -1.4202271635
 C          2.2843306625       -1.3198359528       -0.8292397743
 C          1.5539048990       -0.5691070754        0.0829446708
 N          2.1448103511        0.5570051244        0.6857769060
 S          3.6175677667        0.3378422997        1.4664027768
 O          3.7532690695       -1.0105313243        1.9672075830
 O          3.6861783035        1.3982419426        2.4483511025
 C          4.8275336730        0.6437529110        0.1970541827
 C          4.7769456517        1.8500880943       -0.4736391258
 C          5.7193914606        2.1088488765       -1.4559482743
 C          6.6927178151        1.1642444451       -1.7464652554
 C          6.7317468973       -0.0406430369       -1.0616621399
 C          5.7908046550       -0.3066909407       -0.0789131484
 H          5.7777261626       -1.2314263987        0.4755280073
 H          7.4893044665       -0.7733453239       -1.2888125435
 H          7.4251465614        1.3688249373       -2.5113085446
 H          5.6917985363        3.0444459575       -1.9909567803
 H          4.0069418513        2.5578149408       -0.2151939518
 H          1.5120604271        1.0736708776        1.2795957916
 H          3.2978862987       -1.0377833877       -1.0632687522
 H          2.2574427867       -3.0109304471       -2.1260989747
 H         -0.0558095519       -3.6341168404       -1.5973141831
 C         -1.7773398594       -2.3604363819        0.1619572277
 H         -1.7614520930       -2.7507288325        1.1909209571
 C         -2.4202865008       -3.3939017097       -0.7399406372
 C         -2.2413948602       -4.8557504425       -0.4643622840
 C         -3.5645050968       -4.2011181183       -0.2073535981
 H         -4.3899787179       -4.4245561356       -0.8662859250
 H         -3.8599752704       -4.0240167871        0.8169925397
 H         -2.1616907818       -5.5327160455       -1.3015463166
 H         -1.6411575418       -5.1347998044        0.3886040212
 H         -2.4751803000       -3.0672920071       -1.7718926161
 O         -2.2041104180       -0.5816681927       -2.0571327798
