  62
        -98.94472378
 C          2.0033856629        1.3689601394        0.3043963548
 C          2.6473712530        0.7658661726       -0.8030920422
 C          3.8010890853       -0.0879318798       -0.4834314249
 C          4.1748709956       -0.2410783887        0.7999862175
 C          5.2921320781       -1.1269002009        1.2683944299
 C          4.7799737338       -2.5353626564        1.6013482136
 C          3.9031791787       -3.1484985475        0.5090592175
 H          3.6242427541       -4.1514479803        0.8399628851
 H          2.9791778074       -2.5711932004        0.4245778992
 C          4.5726304066       -3.2327702279       -0.8698247789
 H          4.3742358747       -4.2189475472       -1.2948933861
 H          5.6538068483       -3.1377182394       -0.7627060725
 C          4.0709555532       -2.2020718185       -1.8831660612
 H          2.9787530621       -2.2305280446       -1.9258109717
 H          4.4431386221       -2.4879881313       -2.8705438818
 C          4.5060409987       -0.7526689518       -1.6318762773
 H          5.5888534004       -0.7110767432       -1.4981213425
 H          4.2453926126       -0.1702636745       -2.5204119371
 H          5.6400795900       -3.1818166944        1.7844228366
 H          4.1932246590       -2.4824293863        2.5215193208
 H          6.0558003524       -1.1799228558        0.4951097662
 H          5.7272743456       -0.6866727476        2.1671590872
 O          3.5336101155        0.3587970952        1.8357529663
 C          2.4248959207        1.1610963031        1.6168505755
 O          1.9062609328        1.6184438096        2.6562668686
 H         -0.0673414632       -0.1658590067        0.7620976066
 C         -0.6138963255        0.2054241461       -0.0967730810
 C         -0.3008821342        1.4614931336       -0.6032815072
 C         -1.0229468945        1.9337416595       -1.6907596511
 C         -2.0047116377        1.1504776973       -2.2743910835
 C         -2.2947607583       -0.1086871536       -1.7839556958
 C         -1.5937233059       -0.5815301961       -0.6809995294
 N         -1.8955702161       -1.8510917275       -0.1596069805
 S         -3.5096788410       -2.2563171134        0.0208055356
 O         -3.5426002303       -3.2013303216        1.1151055995
 O         -4.0331801626       -2.7323674331       -1.2352770428
 C         -4.3286963807       -0.7378605790        0.4766745867
 C         -5.3297144122       -0.2276513275       -0.3244682144
 C         -5.9311677082        0.9682485061        0.0338796761
 C         -5.5195595422        1.6320888541        1.1788465887
 C         -4.5145390195        1.1048505673        1.9756042162
 C         -3.9119153744       -0.0917625878        1.6237437643
 H         -3.1305817227       -0.5283347881        2.2256113758
 H         -4.1943895496        1.6219000319        2.8660750007
 H         -5.9837083451        2.5657719087        1.4545063985
 H         -6.7143049041        1.3794544690       -0.5823159215
 H         -5.6154541320       -0.7746209340       -1.2081350449
 H         -1.3607711828       -2.0981240253        0.6596082807
 H         -3.0418639424       -0.7377075322       -2.2400874049
 H         -2.5486566190        1.5249483400       -3.1278457275
 H         -0.8100258253        2.9111332825       -2.0905899725
 C          0.7881563088        2.2514582388        0.0822686557
 H          0.4274248238        2.5285874830        1.0837274430
 C          1.1830896736        3.5120221855       -0.6580460653
 C          0.4192273435        4.7831884198       -0.4443096811
 C          1.8017848721        4.6367325821        0.1145518178
 H          2.6068345167        5.1937890334       -0.3407034146
 H          1.9143931618        4.5020167618        1.1808052853
 H         -0.4101000055        4.7584514683        0.2460959098
 H          0.2764607681        5.4467046253       -1.2837776852
 H          1.5777661973        3.3077553935       -1.6464970491
 O          2.2790691590        0.9279063350       -1.9949465495
