  62
        -98.93933255
 C          1.4958108889        0.7480013576       -0.4835873612
 C          2.7909133405        1.3075088638       -0.5476078259
 C          3.9204639417        0.3617616393       -0.5006375221
 C          3.6724599083       -0.9574097795       -0.3949914165
 C          4.6083675654       -2.1483410846       -0.3694114296
 C          6.1070791005       -1.9614360825       -0.1486813854
 C          6.4909386743       -1.4708574380        1.2470196767
 H          6.2924389092       -2.2720141815        1.9634659700
 H          7.5653493675       -1.2747415004        1.2574961719
 C          5.7536534545       -0.2258791563        1.7337864775
 H          4.6863952610       -0.4409805342        1.8174802191
 H          6.1150783115        0.0049980835        2.7396629052
 C          5.9424075211        1.0231054528        0.8751000924
 H          5.4988266149        1.8641676395        1.4151559227
 H          7.0077758766        1.2293629562        0.7548705139
 C          5.2916929669        0.9738380026       -0.5182043375
 H          5.9315498617        0.4658108892       -1.2357908131
 H          5.1628094273        2.0030556412       -0.8661498592
 H          6.5673960849       -2.9430855697       -0.2905103870
 H          6.5218465892       -1.3077503231       -0.9102988140
 H          4.4617792204       -2.6601395616       -1.3269361530
 H          4.2148149094       -2.8190685342        0.4008641382
 O          2.4000052266       -1.4498869609       -0.3368719032
 C          1.2863392399       -0.6253637728       -0.3693379638
 O          0.1993354261       -1.2239459756       -0.2900511151
 O          3.0000609360        2.5476697159       -0.6424090719
 C          0.2853911368        1.6608132766       -0.5357823195
 C         -0.5869050616        1.4343114802        0.6733970150
 C         -0.0028722235        1.4232535387        1.9380411624
 C         -0.7651612341        1.1943588160        3.0662981305
 C         -2.1254400187        0.9606624887        2.9595143781
 C         -2.7205342767        0.9850710300        1.7047613143
 C         -1.9542388653        1.2350664664        0.5738238557
 H         -2.4463295363        1.2731230267       -0.3823644071
 N         -4.0974118494        0.7721445342        1.5652956070
 S         -4.7370307375        0.1007503911        0.1789045387
 O         -4.7759464939        1.0842187863       -0.8749014175
 O         -6.0239195686       -0.4116924692        0.6009175854
 C         -3.6725711297       -1.2538106144       -0.2801924112
 C         -3.1686929959       -1.3173708080       -1.5622483421
 C         -2.3634139025       -2.3872128475       -1.9145851506
 C         -2.0745693546       -3.3689793326       -0.9817035775
 C         -2.5901334349       -3.2923111252        0.3018635103
 C         -3.3987678757       -2.2268951545        0.6589816642
 H         -3.8170599629       -2.1440505111        1.6492573259
 H         -2.3569411298       -4.0560061792        1.0265119029
 H         -1.4367187083       -4.1944809703       -1.2551870081
 H         -1.9546518473       -2.4459714599       -2.9111186771
 H         -3.4111072968       -0.5275428607       -2.2562436729
 H         -4.5764989031        0.4652793628        2.3982099884
 H         -2.7206778820        0.7671740871        3.8386358833
 H         -0.2964623685        1.1866926627        4.0389491678
 H          1.0623860027        1.5905990916        2.0222540437
 H          0.6826513272        2.6859014806       -0.4935955397
 C         -0.4492780354        1.4731866270       -1.8466347811
 C         -1.2614122255        2.5910680550       -2.4268398654
 C          0.0326738257        2.1925716912       -3.0690499202
 H          0.0027381984        1.6769101702       -4.0171501626
 H          0.8834033129        2.8485929016       -2.9557233713
 H         -2.1876390623        2.3521614337       -2.9283915392
 H         -1.2912078799        3.5218846706       -1.8805857424
 H         -0.8118723489        0.4584909258       -1.9728143810
