  62
        -98.93777037
 C         -1.2087852903       -1.4699184804        0.3052343105
 C         -1.7558741304       -0.5089596700        1.1884148900
 C         -2.9803108804        0.1919201197        0.7570249397
 C         -3.4775801205       -0.0740890210       -0.4646139002
 C         -4.6892475405        0.5183903485       -1.1348518104
 C         -4.4424167407        1.9398485583       -1.6616439112
 C         -3.7238113307        2.8687348189       -0.6868901318
 H         -2.7474707506        2.4463416891       -0.4388682016
 H         -3.5358785708        3.8126463986       -1.2061636923
 C         -4.4910538307        3.1851550195        0.5952936381
 H         -3.9148953707        3.9410980099        1.1351767676
 H         -5.4554335407        3.6268217393        0.3342975979
 C         -4.7327256005        2.0081751800        1.5440119287
 H         -5.5594274905        1.3897149198        1.2046970191
 H         -5.0334601005        2.4263750306        2.5089928485
 C         -3.5041099905        1.1434202303        1.8054329692
 H         -2.6613450705        1.7910443905        2.0748014288
 H         -3.6906040804        0.5283407608        2.6941212495
 H         -3.8283863907        1.8664450478       -2.5628654712
 H         -5.4034808807        2.3752991280       -1.9415451815
 H         -4.9241122105       -0.1293143719       -1.9826278701
 H         -5.5385748605        0.5001325689       -0.4582485604
 O         -2.8747629304       -0.9535716714       -1.3143050597
 C         -1.7264192504       -1.6497192612       -0.9775426093
 O         -1.2881888104       -2.3735259516       -1.8911543289
 H          0.7024230595        0.1199944394       -0.3784138804
 C          1.3499647896       -0.6669570708       -0.7332693100
 C          1.1424805497       -1.9683035406       -0.2954100793
 C          1.9554892197       -2.9730769608       -0.8020472287
 C          2.9421935197       -2.6710233612       -1.7257109889
 C          3.1577898396       -1.3700725915       -2.1423152097
 C          2.3468480895       -0.3574716212       -1.6416415302
 N          2.5209948594        0.9803093286       -2.0264231110
 S          2.2308461794        2.1928717492       -0.9131732816
 O          0.8138345393        2.4042266092       -0.7507259817
 O          2.9798232593        3.3248139889       -1.4172816823
 C          2.9697632894        1.6098677601        0.6034071487
 C          4.3448568495        1.4744507602        0.6251427987
 C          4.9549823995        0.9831788409        1.7669908690
 C          4.1827094796        0.6319067514        2.8641079992
 C          2.8053455896        0.7799012013        2.8298545291
 C          2.1893877695        1.2741032806        1.6903551789
 H          1.1177983895        1.3906093905        1.6388833489
 H          2.1971829796        0.5073947717        3.6778513393
 H          4.6554772897        0.2425568419        3.7518933294
 H          6.0267803095        0.8722350009        1.7977756690
 H          4.9119862294        1.7679980397       -0.2431552115
 H          3.3345132994        1.1647423683       -2.5940150911
 H          3.9322445795       -1.1389956918       -2.8573517398
 H          3.5596124397       -3.4625674514       -2.1224035285
 H          1.8052637898       -3.9941710206       -0.4927924382
 C          0.0615875997       -2.1797122601        0.7353978309
 H          0.3722977097       -1.6335642895        1.6433394106
 C         -0.1180331102       -3.6314516799        1.1521238617
 C         -1.4622708501       -4.1696596197        1.5396078721
 C         -0.7994526301       -4.6440498704        0.2828709423
 H         -0.4040900300       -5.6492787004        0.2628883529
 H         -1.1888170002       -4.3056577109       -0.6638826979
 H         -1.5229830200       -4.8446581993        2.3802654824
 H         -2.3117816702       -3.5079816398        1.4470075317
 H          0.7224836999       -3.9885204695        1.7393826919
 O         -1.2370377604       -0.2345261893        2.3051523299
