  62
        -98.94198106
 C         -0.7209761181       -1.2963650946        0.5415876139
 C         -1.1647491854       -0.8495570326       -0.7241935021
 C         -2.1478769504        0.2483089317       -0.7188674113
 C         -2.5450100549        0.7643880260        0.4570413352
 C         -3.6223712835        1.7884377309        0.6843178835
 C         -4.9726357592        1.0969632537        0.9439088538
 C         -5.7877880704        0.7860380920       -0.3107403469
 H         -6.6532826410        0.1974183876        0.0023218293
 H         -6.1637389816        1.7196624722       -0.7344184149
 C         -5.0420970316        0.0175669999       -1.4049579300
 H         -5.7878034466       -0.4541993235       -2.0480314630
 H         -4.4512343029       -0.7829077702       -0.9558320266
 C         -4.1389995479        0.9129924009       -2.2660755423
 H         -4.3486194646        0.7265181118       -3.3212749511
 H         -4.3927539840        1.9563658550       -2.0804326177
 C         -2.6295001767        0.7025205887       -2.0691990576
 H         -2.2777399873       -0.0698858570       -2.7600765395
 H         -2.1009178907        1.6239349938       -2.3321218828
 H         -5.5776005275        1.7385821457        1.5878616963
 H         -4.7780316108        0.1732485956        1.4950410590
 H         -3.3437250982        2.3492410692        1.5777804283
 H         -3.6920010001        2.4699728664       -0.1573375479
 O         -2.0419867180        0.3455605432        1.6516292360
 C         -1.1271590520       -0.6876486471        1.7271746731
 O         -0.7564798718       -0.9679629144        2.8863885852
 H          1.6036353284       -0.2034411707        0.4514584340
 C          2.0467791883       -0.9677727152       -0.1704305145
 C          1.4635516282       -2.2275854420       -0.2100364936
 C          2.0516756721       -3.2077627196       -0.9991261228
 C          3.1855229869       -2.9212110018       -1.7391727553
 C          3.7587034004       -1.6639724759       -1.7020288332
 C          3.1812801089       -0.6774131764       -0.9095390552
 N          3.7146379540        0.6165468702       -0.8773773419
 S          3.4878951843        1.6294710516        0.4232438163
 O          4.4471599939        2.6936383572        0.2126108818
 O          3.5976733368        0.9289990601        1.6820664087
 C          1.8506802567        2.2930281270        0.2110043661
 C          1.4602467693        2.7109838915       -1.0452343527
 C          0.2132455439        3.2947054268       -1.1973218773
 C         -0.6139464871        3.4573268747       -0.0969745299
 C         -0.2085553866        3.0289647799        1.1571033514
 C          1.0346606773        2.4389181546        1.3147698964
 H          1.3803458228        2.0792454285        2.2719608123
 H         -0.8518838373        3.1466574386        2.0145097726
 H         -1.5788166568        3.9238226200       -0.2140817246
 H         -0.1064074476        3.6268829915       -2.1721172025
 H          2.1307131707        2.5742235224       -1.8772247345
 H          4.6001888850        0.7462865010       -1.3421787856
 H          4.6403787258       -1.4410658518       -2.2830492469
 H          3.6302754021       -3.6894784893       -2.3533597005
 H          1.6204053043       -4.1944674426       -1.0398750804
 C          0.2354383962       -2.4703775675        0.6323475663
 H          0.5528764639       -2.5263328714        1.6848844484
 C         -0.4940742284       -3.7502384977        0.2740310478
 C         -0.1103544854       -5.0496566313        0.9138516628
 C         -1.3943516206       -4.3773329267        1.2941329281
 H         -2.3250437637       -4.8139092884        0.9639609423
 H         -1.4560711943       -3.8965572344        2.2600116577
 H          0.6981066859       -5.0356833037        1.6293153940
 H         -0.1627211034       -5.9519077034        0.3232221445
 H         -0.8228484308       -3.7635420297       -0.7590634920
 O         -0.7761213176       -1.3565639818       -1.8088026988
