  62
        -98.94165027
 C          0.7068090764        1.4571694032        0.3830451989
 C          1.1856013229        0.7476667987       -0.7466344662
 C          2.3308601383       -0.1429812612       -0.4931518140
 C          2.7906968895       -0.3173385173        0.7573159555
 C          3.9568401247       -1.1751673207        1.1675699190
 C          5.3179638859       -0.4826477376        1.0101658580
 C          5.8040198837       -0.3219286623       -0.4310563507
 H          6.8558699862       -0.0329743445       -0.3839582465
 H          5.7543520956       -1.2845018739       -0.9409474125
 C          5.0412216553        0.7328992005       -1.2449212899
 H          4.4919481193        1.3898783482       -0.5665308552
 H          5.7531538041        1.3581971618       -1.7885599033
 C          4.0660449757        0.1593698879       -2.2737012186
 H          4.6201732697       -0.3898677349       -3.0383469058
 H          3.5546261870        0.9920911131       -2.7635980463
 C          2.9982720875       -0.7692293809       -1.6801903009
 H          2.2315045181       -0.9423413338       -2.4398013743
 H          3.4459402370       -1.7248937859       -1.4091611352
 H          5.2700265210        0.4977677188        1.4894879525
 H          6.0531214869       -1.0817195120        1.5523529599
 H          3.8130647848       -1.4110308227        2.2235810406
 H          3.9571214955       -2.1035895171        0.5972102894
 O          2.2178347440        0.2854661157        1.8324395128
 C          1.2001212172        1.2081404893        1.6669580031
 O          0.8179679791        1.7418969389        2.7275073968
 H         -1.5207630366        0.3253228495       -0.7866312955
 C         -2.1594712937        0.7995945426       -0.0565954441
 C         -1.7327333269        1.9507677096        0.5921029102
 C         -2.5791438848        2.5575405287        1.5129540169
 C         -3.8282801180        2.0261217441        1.7778195907
 C         -4.2484837699        0.8743386956        1.1391201072
 C         -3.4074473805        0.2573248641        0.2179967285
 N         -3.8187564691       -0.9126173372       -0.4294082970
 S         -2.7501764583       -1.9980379223       -1.0940820661
 O         -2.2474868893       -1.5060823457       -2.3506642091
 O         -3.5122084355       -3.2284655681       -1.1705632211
 C         -1.4117232969       -2.2310450726        0.0639243887
 C         -1.6190388956       -2.1095314240        1.4232248453
 C         -0.5692043639       -2.3770408406        2.2875149116
 C          0.6555474156       -2.7849699937        1.7846738012
 C          0.8439566179       -2.9139385209        0.4180819667
 C         -0.1946832623       -2.6265125748       -0.4516153289
 H         -0.0823353124       -2.6924226939       -1.5221014333
 H          1.7924849961       -3.2404186073        0.0248695832
 H          1.4668582005       -3.0019375650        2.4612010153
 H         -0.7111744707       -2.2673227540        3.3507015692
 H         -2.5805382365       -1.8027425756        1.8012561363
 H         -4.6522661863       -1.3513003795       -0.0686600618
 H         -5.2185289970        0.4502432279        1.3480168413
 H         -4.4770709571        2.5065625821        2.4939302237
 H         -2.2443767116        3.4430195509        2.0324619818
 C         -0.3699505778        2.5284058533        0.3135132717
 H         -0.1393641835        3.2199732332        1.1408480897
 C         -0.3264448355        3.3445688511       -0.9707565087
 C         -1.3248764406        3.2084109883       -2.0762301138
 C         -1.3388881457        4.4268068986       -1.2056340733
 H         -1.0057693232        5.3654144803       -1.6219955219
 H         -2.1434420268        4.5189051641       -0.4916772845
 H         -2.1177867252        2.4851314279       -1.9658622689
 H         -0.9607581510        3.2911998406       -3.0890528141
 H          0.6930995487        3.5607365278       -1.2742336086
 O          0.7192528829        0.8491792769       -1.9090578927
