  62
        -98.93394632
 C         -1.6806630470       -1.1964553184        0.5931165855
 C         -1.9605466492        0.1802490066        0.8006457274
 C         -3.3414693231        0.6156518185        0.5590428254
 C         -4.2622074185       -0.2876669104        0.1787661343
 C         -5.7297681328       -0.0407735052       -0.0518445993
 C         -6.0889143834        0.8922993139       -1.2241109343
 C         -6.2775438179        2.3616992798       -0.8273114175
 H         -7.1270283596        2.7680447859       -1.3801442611
 H         -6.5412275930        2.4087190639        0.2299835962
 C         -5.0855847125        3.2843672173       -1.0986686360
 H         -5.2549329929        4.2165494739       -0.5554155441
 H         -5.0571849014        3.5254455965       -2.1637965121
 C         -3.7118450850        2.7315798114       -0.7177571161
 H         -3.3965081623        1.9898312540       -1.4555573801
 H         -2.9890976281        3.5478162391       -0.7737554622
 C         -3.6435360469        2.0812007714        0.6776492752
 H         -2.8274475920        2.5210000304        1.2541340310
 H         -4.5738466752        2.2380799768        1.2216475789
 H         -7.0300197757        0.5285725826       -1.6397888648
 H         -5.3347669539        0.8012964881       -2.0054445540
 H         -6.1640762001       -1.0257825786       -0.2348169825
 H         -6.1675581262        0.3505697215        0.8693491713
 O         -3.9560394668       -1.5988964494       -0.0071850196
 C         -2.6683721024       -2.0854093191        0.1691530704
 O         -2.5654890080       -3.3033046184       -0.0787252133
 H          1.9283972250       -0.1882355835        0.2278531364
 C          1.6726471624       -0.8767704359       -0.5627379480
 C          0.5578937056       -1.6908325739       -0.4273160075
 C          0.2284968777       -2.5570555341       -1.4644707604
 C          1.0070851473       -2.6036721407       -2.6061771355
 C          2.1337918978       -1.8087792919       -2.7270618711
 C          2.4700187523       -0.9385715589       -1.6970176648
 N          3.5948810876       -0.1094074385       -1.7934730590
 S          4.5098718435        0.2412505659       -0.4373687296
 O          5.7957091885        0.6427210077       -0.9668470697
 O          4.5241519447       -0.8605548356        0.4960218694
 C          3.7144705878        1.6602821812        0.2834664979
 C          3.4212563604        1.6689816250        1.6323195883
 C          2.8217697610        2.7910652029        2.1815777906
 C          2.5287034758        3.8797812719        1.3756778935
 C          2.8325548393        3.8567800044        0.0229409347
 C          3.4331628109        2.7384816069       -0.5316417929
 H          3.6854095999        2.6847386801       -1.5776053782
 H          2.6006178049        4.7057627623       -0.5998809557
 H          2.0577449689        4.7498428464        1.8052393346
 H          2.5808357272        2.8089177101        3.2324535523
 H          3.6590593155        0.7974247842        2.2223206878
 H          4.1656202858       -0.2523322366       -2.6136434649
 H          2.7481952177       -1.8594595774       -3.6132380866
 H          0.7414743357       -3.2771630121       -3.4072295856
 H         -0.6431407329       -3.1859496825       -1.3672475846
 C         -0.2501248406       -1.6362804534        0.8473093475
 H          0.1837392421       -0.8446059811        1.4735605915
 C         -0.1280275255       -2.9520247620        1.5923926885
 C          1.1923893926       -3.3058445509        2.2068156531
 C          0.0307128220       -2.9429729620        3.0815529660
 H         -0.4466775917       -3.7235975333        3.6547202472
 H          0.0459636879       -1.9836369232        3.5779577429
 H          1.5120501438       -4.3364045512        2.1787045401
 H          2.0011682529       -2.5970438522        2.1015386979
 H         -0.7108996246       -3.7520314127        1.1554046310
 O         -1.0925539042        1.0073979030        1.1874064828
