  62
        -98.93451843
 C         -2.0860643899       -0.8521590589       -0.4333261403
 C         -3.0128226498       -0.5436383998        0.5965073901
 C         -3.4913403697        0.8453986802        0.6755620114
 C         -3.0287590999        1.7477143809       -0.2061246780
 C         -3.3211955699        3.2251536510       -0.2919723067
 C         -4.7656258398        3.6806426608       -0.0513366960
 C         -5.8409856299        2.7107868512       -0.5623116667
 H         -6.5474031400        3.2606511518       -1.1867543061
 H         -5.3829636500        1.9418178218       -1.1866768574
 C         -6.6302808697        2.0457183303        0.5675439629
 H         -6.8659005396        2.7996596496        1.3217049436
 H         -7.5772248098        1.6779299606        0.1653594428
 C         -5.9361484296        0.8634233997        1.2423869218
 H         -5.8905983998        0.0169333703        0.5520216211
 H         -6.5503096295        0.5520943490        2.0906692416
 C         -4.5075781095        1.1318420293        1.7437935618
 H         -4.4081517195        2.1428101489        2.1317094426
 H         -4.2968476994        0.4278811786        2.5535389411
 H         -4.9199599097        3.8570351999        1.0120950541
 H         -4.8773359199        4.6455250912       -0.5489509952
 H         -2.6593009598        3.7391228104        0.4118560837
 H         -3.0077391401        3.5180980218       -1.2971345965
 O         -2.1416762001        1.4105721917       -1.1822774684
 C         -1.6396556601        0.1267454618       -1.3190805796
 O         -0.8270763902        0.0167691326       -2.2609483198
 O         -3.4203217696       -1.4001223805        1.4257882094
 C         -1.5706382300       -2.2823269989       -0.4765921116
 C         -0.2368578898       -2.3616516195        0.2278961081
 C         -0.0857295396       -3.0864129805        1.4038290274
 C          1.1268739305       -3.1025464910        2.0718329672
 C          2.2095853004       -2.3900936506        1.5876693076
 C          2.0647985002       -1.6597115296        0.4159914783
 C          0.8565064801       -1.6616738191       -0.2625556215
 H          0.7501412199       -1.0793772683       -1.1661616410
 N          3.1554372201       -0.8934335692       -0.0719157613
 S          3.4724481503        0.4722127599        0.8793135598
 O          3.8484040305        0.0269342288        2.1967589594
 O          2.3608700303        1.3992950000        0.8144920708
 C          4.8904006602        1.1499809006        0.0399401902
 C          4.7056736100        2.1377106015       -0.9080166090
 C          5.8106730499        2.6374485420       -1.5792923587
 C          7.0735129299        2.1401532618       -1.2949377494
 C          7.2423497301        1.1472371810       -0.3413495202
 C          6.1419625302        0.6442201804        0.3340386495
 H          6.2243901803       -0.1205119902        1.0882029989
 H          8.2261506901        0.7648406808       -0.1223417107
 H          7.9311918698        2.5312640222       -1.8190435392
 H          5.6813188398        3.4104809826       -2.3197348281
 H          3.7062262500        2.5002473416       -1.0910485885
 H          2.9519338800       -0.5594955885       -1.0072583709
 H          3.1491347805       -2.3679734311        2.1143627975
 H          1.2274720206       -3.6686025918        2.9855268267
 H         -0.9344386896       -3.6197855008        1.8068808471
 H         -2.2927242899       -2.8668759494        0.1091555680
 C         -1.4964877502       -2.8684267577       -1.8720808421
 C         -1.4649842002       -4.3581330176       -2.0300456234
 C         -2.6864659603       -3.5875384072       -2.4298597925
 H         -2.9083938105       -3.4756978363       -3.4804525724
 H         -3.5639758102       -3.6615212077       -1.8041274624
 H         -0.8454489404       -4.7798123869       -2.8063463839
 H         -1.5146894001       -4.9562127983       -1.1328219239
 H         -0.9087100203       -2.2749571071       -2.5598136617
