  62
        -98.94487350
 C         -2.2102402522       -1.3262931625        0.1442063200
 C         -2.1091239587       -0.4972350503       -0.9990552710
 C         -2.9207072755        0.7295262119       -0.9758148028
 C         -3.7013260540        0.9923208013        0.0872723087
 C         -4.5126288046        2.2412814702        0.2703959126
 C         -3.7057168104        3.3207947836        1.0063833919
 C         -2.3058595115        3.5457758220        0.4341124459
 H         -1.7098655873        2.6436829139        0.5910654558
 H         -1.8439295867        4.3450344321        1.0175630426
 C         -2.2815429391        3.9207780636       -1.0547801973
 H         -1.5882646098        4.7528370695       -1.1978863979
 H         -3.2676104804        4.2689401757       -1.3643852408
 C         -1.8295722997        2.7961792178       -1.9887678957
 H         -0.8848559335        2.3762846067       -1.6344199976
 H         -1.6469475904        3.2275753262       -2.9768052511
 C         -2.8230164448        1.6415492476       -2.1666014420
 H         -2.4665471694        1.0204885418       -2.9935994497
 H         -3.8053533467        2.0358315207       -2.4335324466
 H         -3.6025606565        3.0219304808        2.0519708756
 H         -4.2696481817        4.2547410781        0.9739191585
 H         -5.3966276365        1.9947709588        0.8607664456
 H         -4.8303042776        2.6096681906       -0.7030949069
 O         -3.7954412573        0.1599260149        1.1543993859
 C         -3.0512624774       -1.0041991067        1.2151070887
 O         -3.2252939313       -1.6664351254        2.2571626223
 O         -1.3856226576       -0.7450753692       -2.0007133293
 C         -1.4128531215       -2.6135903656        0.2983862535
 C          0.0273431959       -2.2843607885        0.6129649667
 C          0.4874424120       -2.3419242592        1.9244885461
 C          1.7983174167       -2.0192102094        2.2269105645
 C          2.6748069525       -1.6239072963        1.2317386243
 C          2.2181784973       -1.5414293006       -0.0773365920
 C          0.9057203023       -1.8782348986       -0.3808554379
 H          0.5544714522       -1.7924414683       -1.3972552637
 N          3.0856426393       -1.1260650682       -1.0998625088
 S          4.1711225391        0.1086596246       -0.8110380765
 O          4.4832079193        0.6472830458       -2.1156327638
 O          5.2895020359       -0.4008917735       -0.0561931763
 C          3.2980408266        1.3232124559        0.1620261363
 C          3.7102658319        1.5974720439        1.4501960347
 C          3.0170623956        2.5416499960        2.1905376082
 C          1.9318307924        3.1962579505        1.6298435208
 C          1.5349185907        2.9163153489        0.3311378311
 C          2.2191895415        1.9673511784       -0.4106290843
 H          1.9352041103        1.7280400969       -1.4234906521
 H          0.6940977888        3.4328216453       -0.1034018939
 H          1.3919747450        3.9318995438        2.2048846041
 H          3.3255985300        2.7639837307        3.1993098201
 H          4.5655627028        1.0732349882        1.8443332364
 H          2.6358469072       -1.0237051147       -1.9975408495
 H          3.7032564763       -1.3862013472        1.4487179361
 H          2.1434412693       -2.0776975903        3.2478924309
 H         -0.1974350494       -2.6341106981        2.7077823788
 H         -1.8382040029       -3.1198973799        1.1747222987
 C         -1.5512635965       -3.5340847012       -0.8978449339
 C         -1.1840394731       -4.9785443544       -0.7472949674
 C         -2.6218318434       -4.5815097305       -0.8928555584
 H         -3.1288516761       -4.8043234423       -1.8198087768
 H         -3.2591992179       -4.6418301460       -0.0225021391
 H         -0.7012785589       -5.4772061432       -1.5737746308
 H         -0.8456166496       -5.3086956759        0.2233077632
 H         -1.3374317114       -3.0556657626       -1.8442300721
