  62
        -98.93307969
 C         -2.1046082483       -0.4517511368        0.3252579121
 C         -2.8382035230        0.7357708460        0.0769032113
 C         -4.1948660100        0.5814422857       -0.4719981264
 C         -4.6659113802       -0.6531660416       -0.7160110849
 C         -5.9945224952       -1.0555677531       -1.3059496655
 C         -7.2409822993       -0.2995830671       -0.8274050825
 C         -7.2016784199        0.1522305766        0.6397331739
 H         -8.1157146704       -0.1769884812        1.1374491678
 H         -6.3626918368       -0.3191154501        1.1545003785
 C         -7.1046832766        1.6718988303        0.7940632202
 H         -7.4453716906        1.9461123723        1.7954615970
 H         -7.7836246289        2.1408285467        0.0785032434
 C         -5.7059462300        2.2612489444        0.6155512263
 H         -5.7945195904        3.3502470022        0.6348038783
 H         -5.0728948356        1.9780225219        1.4609901054
 C         -4.9728535772        1.8502550545       -0.6718243224
 H         -5.6614625831        1.7728202157       -1.5097634120
 H         -4.2336629550        2.6235480698       -0.8984725014
 H         -7.4064459775        0.5698943624       -1.4619694091
 H         -8.0915124357       -0.9660686705       -0.9804019946
 H         -6.0984679321       -2.1177722844       -1.0717044039
 H         -5.9215948854       -0.9720308135       -2.3942428461
 O         -3.9261710312       -1.7691748948       -0.4703806749
 C         -2.6374619075       -1.7100365030        0.0459179967
 O         -2.1110106407       -2.8270125651        0.1962677388
 O         -2.3728319577        1.8853214307        0.3037564880
 C         -0.7112159788       -0.2809716339        0.9004841606
 C          0.3259111545       -0.1821047781       -0.1899402069
 C          0.3431507961       -1.0757388149       -1.2570471742
 C          1.3029528258       -0.9697839418       -2.2466441588
 C          2.2771061879        0.0116423238       -2.1797421159
 C          2.2737843399        0.9029871813       -1.1145687604
 C          1.2942325424        0.8096274185       -0.1349323469
 H          1.3009521725        1.5205133597        0.6771108023
 N          3.2630893275        1.9016683096       -0.9953900626
 S          4.3038326830        1.7717617946        0.3121541644
 O          3.5487163944        1.8161815841        1.5363481888
 O          5.2950834475        2.8051607468        0.1195444352
 C          5.0540476054        0.1659783400        0.1051195685
 C          6.2593158263        0.0694432197       -0.5626874575
 C          6.8017583967       -1.1854358691       -0.7883962987
 C          6.1272322438       -2.3170023077       -0.3549053937
 C          4.9163193721       -2.2034382668        0.3108450464
 C          4.3712370181       -0.9508137631        0.5442140154
 H          3.4352017445       -0.8264486444        1.0631250242
 H          4.3901556165       -3.0819329099        0.6487649286
 H          6.5473239754       -3.2939222405       -0.5349689579
 H          7.7447581958       -1.2774037908       -1.3028096986
 H          6.7503179569        0.9759145041       -0.8783253725
 H          3.8046715968        2.0357380782       -1.8384748547
 H          3.0309915945        0.0901745473       -2.9486308458
 H          1.2995711439       -1.6655170853       -3.0717883928
 H         -0.4002938232       -1.8574663725       -1.2963776100
 H         -0.7353911290        0.6949768460        1.4116976071
 C         -0.3531882071       -1.3322362397        1.9436307464
 C          0.7439681533       -2.3322697896        1.7523308136
 C          0.9245777420       -1.2025597964        2.7192117746
 H          0.9100123661       -1.4190638337        3.7768812576
 H          1.5908260921       -0.3942467361        2.4512675592
 H          0.5853706696       -3.3264577042        2.1409139351
 H          1.2943129523       -2.3113752941        0.8245958720
 H         -1.2234465670       -1.6728885588        2.4944292992
