  62
        -98.94016008
 C          1.9914692037        1.4886447687        0.0138271160
 C          1.7730138902        0.2371015713       -0.6060734454
 C          2.9612141593       -0.6140564712       -0.7921841332
 C          4.1621697787       -0.1694777861       -0.3837612830
 C          5.5055638699       -0.8435072010       -0.5106939084
 C          5.5768632879       -2.3458146208       -0.2041859190
 C          4.6067813082       -2.8340130304        0.8815847296
 H          5.1645278618       -3.4107131366        1.6217705446
 H          4.1643117825       -1.9813051594        1.3993604251
 C          3.4952953848       -3.7292859510        0.3291398078
 H          3.0832902008       -4.3231088186        1.1484865810
 H          3.9325922349       -4.4246494877       -0.3906876301
 C          2.3275138399       -2.9960542330       -0.3301613094
 H          1.6801476951       -3.7480780476       -0.7884571120
 H          1.7386604122       -2.4769820382        0.4313774013
 C          2.7122446969       -1.9636970379       -1.4023625057
 H          3.5623550227       -2.3027744862       -1.9894590852
 H          1.8559796586       -1.8376780508       -2.0710162919
 H          6.6029044004       -2.5559118771        0.1026287859
 H          5.4015893404       -2.9125662912       -1.1175575226
 H          5.8796045532       -0.6666294179       -1.5233674643
 H          6.1614522500       -0.2988404501        0.1727686360
 O          4.3254001664        1.0474372897        0.2099769938
 C          3.2573063773        1.8995392700        0.4274738187
 O          3.5569920871        2.9705384287        0.9931159647
 H         -1.8781633480        2.1469230823       -0.3214870004
 C         -1.5756092074        1.6998374928        0.6100075772
 C         -0.2560305312        1.7497859859        1.0294623711
 C          0.0809273524        1.1524651952        2.2424815551
 C         -0.8745514126        0.5121593495        3.0066031144
 C         -2.1876393874        0.4444191104        2.5725060535
 C         -2.5355875926        1.0405208688        1.3676275853
 N         -3.8645488331        1.0048866664        0.9015396818
 S         -4.1840246247        0.2992536805       -0.5852999754
 O         -3.4820994460        1.0045368003       -1.6246720392
 O         -5.6279594332        0.2893565613       -0.6829732069
 C         -3.5912275102       -1.3749838179       -0.4183835131
 C         -4.5070591196       -2.3651767629       -0.1162297365
 C         -4.0573334765       -3.6591522993        0.0873863322
 C         -2.7016518472       -3.9381755948       -0.0021690910
 C         -1.7971255920       -2.9318820431       -0.3016682217
 C         -2.2386810462       -1.6343739709       -0.5133982321
 H         -1.5422371050       -0.8451599949       -0.7494777920
 H         -0.7408277557       -3.1367339066       -0.3719125814
 H         -2.3475110601       -4.9438976083        0.1612415604
 H         -4.7612485487       -4.4426697122        0.3178542608
 H         -5.5508612779       -2.1012961741       -0.0583250855
 H         -4.5211502958        0.6456254271        1.5810889330
 H         -2.9355962283       -0.0624961835        3.1633528113
 H         -0.5956867233        0.0550374076        3.9440332411
 H          1.1093919963        1.1984974201        2.5756114336
 C          0.8272301122        2.4372173721        0.2352301538
 H          1.2215766399        3.2666741422        0.8406910144
 C          0.3486715502        2.9910622364       -1.0905947574
 C         -0.3017891249        4.3392104001       -1.1513276882
 C          1.0796383567        4.1476999087       -1.6999210402
 H          1.2179731369        4.1645811925       -2.7706529902
 H          1.9131356246        4.5542002968       -1.1452054603
 H         -0.4081460997        4.8851854645       -0.2259941356
 H         -1.1158356212        4.4858022511       -1.8454524061
 H         -0.0148278902        2.2216934318       -1.7630833720
 O          0.6422889021       -0.1537598735       -0.9950432039
