  62
        -98.94666741
 C         -1.1750775409       -1.2659990704        0.0779244695
 C         -1.5769385106       -0.2958052809        1.0287443101
 C         -2.4174411003        0.7954799697        0.5234029708
 C         -2.7004875103        0.8491286406       -0.7908844492
 C         -3.6234624900        1.8464577313       -1.4282462085
 C         -5.0646456401        1.3173609017       -1.4608709789
 C         -5.5578044903        0.7818534510       -0.1164800892
 H         -6.5957131704        0.4701232714       -0.2521176194
 H         -4.9863028306       -0.1119917193        0.1437617902
 C         -5.4737642800        1.7898417503        1.0384862514
 H         -5.3761987497        2.8011725405        0.6422353021
 H         -6.4073660700        1.7530963102        1.6039107214
 C         -4.3414828601        1.5225068393        2.0320527712
 H         -4.3871788104        0.4831868191        2.3672896406
 H         -4.5020136999        2.1556229888        2.9088226516
 C         -2.9234205800        1.8018644492        1.5175897414
 H         -2.2431385100        1.7478721985        2.3723246714
 H         -2.8749971997        2.8106214095        1.1036590921
 H         -5.1206732104        0.5083149122       -2.1927527494
 H         -5.7204134699        2.1232492122       -1.7954457684
 H         -3.5871742997        2.7811815409       -0.8720031980
 H         -3.2913725199        2.0237575918       -2.4525466284
 O         -2.2087569606       -0.0392324190       -1.6888378097
 C         -1.4328084709       -1.1165211495       -1.2852499204
 O         -1.0479215811       -1.8412929790       -2.2207979209
 O         -1.2541077406       -0.3479147917        2.2468906601
 C         -0.3713439513       -2.4601098010        0.5691122687
 C          1.0717201488       -2.2513041612        0.1854315989
 C          1.7101039686       -2.9444028407       -0.8338410216
 C          3.0222435586       -2.6489869609       -1.1657186514
 C          3.7235423389       -1.6673610515       -0.4888923808
 C          3.0915724892       -0.9704731220        0.5331764797
 C          1.7784259591       -1.2633290718        0.8623408995
 H          1.2819181992       -0.7125420021        1.6511824898
 N          3.7965899195        0.0481500074        1.2177089003
 S          4.0844601199        1.4332828178        0.3228688612
 O          4.9029771298        1.0889196883       -0.8105136690
 O          4.6390302602        2.3935287071        1.2488549218
 C          2.4756790301        1.9764001887       -0.2248559785
 C          1.8970784099        1.3621695895       -1.3177228489
 C          0.6313095000        1.7608701502       -1.7154915586
 C         -0.0297156497        2.7592964399       -1.0171232480
 C          0.5598499005        3.3574547391        0.0855116124
 C          1.8229861804        2.9597374184        0.4910996221
 H          2.3218215805        3.4032858577        1.3379431624
 H          0.0389064107        4.1294854289        0.6284702829
 H         -1.0099860796        3.0723516704       -1.3382596378
 H          0.1631893498        1.2831271808       -2.5622216389
 H          2.4398979296        0.5939633097       -1.8446336294
 H          3.3521877396        0.3125496170        2.0867589305
 H          4.7387986790       -1.4146186717       -0.7477362106
 H          3.5053727985       -3.1919453105       -1.9639968017
 H          1.1753361183       -3.7037672502       -1.3797774121
 H         -0.4325751413       -2.4165964716        1.6657252388
 C         -0.9534338617       -3.7760366405        0.1024317279
 C         -0.5548694521       -5.0418510210        0.7984499371
 C         -1.9366785119       -4.4910014407        0.9781624375
 H         -2.7629529021       -5.0055604202        0.5110103771
 H         -2.1863658318       -4.0373287313        1.9263553177
 H         -0.4311322023       -5.9378310207        0.2097775765
 H          0.1351448880       -4.9600442318        1.6246860972
 H         -1.1241188717       -3.8154796998       -0.9660847221
