  62
        -98.93601432
 C          0.8120730206        1.7320710627        0.3466076105
 C          1.5557639004        0.7949291276        1.1036205095
 C          2.7644173402        0.2231624885        0.4776063541
 C          3.0709494329        0.5855479308       -0.7816601400
 C          4.2427122078        0.1590736003       -1.6275557750
 C          4.0943797115       -1.2618364245       -2.1890341172
 C          3.6395046243       -2.3000091680       -1.1683747283
 H          2.6691557680       -2.0016030833       -0.7690091795
 H          3.5001190165       -3.2455160928       -1.6983136242
 C          4.6131998033       -2.5470400348       -0.0181755565
 H          4.2395014227       -3.4039764344        0.5475375335
 H          5.5883250762       -2.8224265160       -0.4255759383
 C          4.8029202129       -1.3859973107        0.9621573810
 H          5.4946765258       -0.6442064068        0.5713059288
 H          5.2673256112       -1.7944627095        1.8643424890
 C          3.5094560383       -0.7082912259        1.4028665782
 H          3.7130046575       -0.1197109085        2.3054429864
 H          2.7870703460       -1.4705831902        1.7147045263
 H          5.0510224699       -1.5615614705       -2.6208028110
 H          3.3546260970       -1.2338229700       -2.9927002574
 H          4.2923277597        0.8603047335       -2.4637251350
 H          5.1651993631        0.2537717720       -1.0622125242
 O          2.2781080836        1.4287068447       -1.5024121826
 C          1.1338772892        2.0091375560       -0.9825967802
 O          0.5217644832        2.7281796890       -1.7933057996
 O          1.2306578737        0.4444894052        2.2701607089
 C         -0.4202662336        2.3407719064        0.9916143150
 C         -1.6146545492        2.1217215053        0.0995258761
 C         -2.3182386199        3.1434205924       -0.5229902973
 C         -3.3867651835        2.8475196732       -1.3512586473
 C         -3.7849864478        1.5395427058       -1.5584068087
 C         -3.0883437154        0.5093084752       -0.9367261552
 C         -2.0100610323        0.8082732247       -0.1217684270
 H         -1.4618154227        0.0074276917        0.3535597203
 N         -3.4484066410       -0.8345749658       -1.1270066265
 S         -3.4530288856       -1.8646171862        0.1933210593
 O         -4.3285767711       -2.9492061698       -0.1987977385
 O         -3.8148754899       -1.1668058043        1.4051955096
 C         -1.7922329022       -2.4931807366        0.3080247458
 C         -1.2280531864       -3.0716135649       -0.8119048636
 C          0.0425684155       -3.6143822952       -0.7144756075
 C          0.7210450752       -3.5754259740        0.4947818172
 C          0.1432961365       -2.9862064006        1.6081170883
 C         -1.1267137468       -2.4398658336        1.5162245562
 H         -1.6068956903       -1.9652869639        2.3574976130
 H          0.6727709053       -2.9421448067        2.5466524890
 H          1.7061476831       -4.0082946132        0.5697018005
 H          0.5011024091       -4.0671875600       -1.5788797558
 H         -1.7895838486       -3.0898226861       -1.7311864578
 H         -4.2585679389       -0.9773305607       -1.7126512874
 H         -4.6227232549        1.3134323917       -2.2008564544
 H         -3.9208150328        3.6485133727       -1.8398957541
 H         -2.0141409681        4.1672291682       -0.3798961122
 H         -0.5728693535        1.7375657555        1.9027507088
 C         -0.2583344452        3.7798551063        1.4545278453
 C          1.0757110243        4.2939720581        1.9052395249
 C          0.4523830492        4.8260616052        0.6514703146
 H          0.0582334518        5.8319568844        0.6657031421
 H          0.8690716646        4.5348800836       -0.2991334969
 H          1.1154960061        4.9324807433        2.7749669593
 H          1.9221133003        3.6289585192        1.8106378836
 H         -1.1192267367        4.1127973738        2.0272011139
