  62
        -98.94472375
 C          2.0066965161        1.3695175845        0.3030333959
 C          2.6486895417        0.7617587684       -0.8030713514
 C          3.7987948090       -0.0961298630       -0.4813184933
 C          4.1716635496       -0.2480359230        0.8025186109
 C          5.2844992548       -1.1382040366        1.2732126724
 C          4.7651085135       -2.5433442904        1.6090296320
 C          3.8858481760       -3.1544454542        0.5175790352
 H          3.6015612207       -4.1552122784        0.8505261923
 H          2.9648739670       -2.5725959561        0.4312219839
 C          4.5557120865       -3.2452002314       -0.8606924962
 H          5.6372777837       -3.1552217461       -0.7531315220
 H          4.3527099762       -4.2313482133       -1.2836514225
 C          4.0597131990       -2.2143318668       -1.8766622326
 H          2.9674302036       -2.2378385338       -1.9203330946
 H          4.4315452244       -2.5040736059       -2.8630563308
 C          4.5012322079       -0.7664010905       -1.6280992052
 H          5.5841613960       -0.7294386625       -1.4939184858
 H          4.2436437229       -0.1846306183       -2.5179461038
 H          5.6218298848       -3.1937338349        1.7940235571
 H          4.1781241663       -2.4853983714        2.5287532568
 H          6.0481519903       -1.1967371872        0.5003184008
 H          5.7214895169       -0.6981816186        2.1711700301
 O          3.5329602098        0.3570628224        1.8368111620
 C          2.4276049551        1.1634673637        1.6159611653
 O          1.9111696253        1.6258349048        2.6542358697
 H         -0.0632004326       -0.1634363318        0.7506257349
 C         -0.6111553170        0.2127292346       -0.1052094913
 C         -0.2968698720        1.4702544104       -0.6072207517
 C         -1.0208447255        1.9484951589       -1.6908653005
 C         -2.0058112726        1.1697893898       -2.2751149600
 C         -2.2970593662       -0.0909229808       -1.7893320043
 C         -1.5939125799       -0.5699384895       -0.6904230485
 N         -1.8953131630       -1.8417016758       -0.1744692315
 S         -3.5081195683       -2.2515664225        0.0050302682
 O         -3.5367286516       -3.2080662431        1.0893762841
 O         -4.0337253039       -2.7150858301       -1.2548593728
 C         -4.3284942295       -0.7397765540        0.4796909456
 C         -5.3243733905       -0.2156068922       -0.3188393795
 C         -5.9267243467        0.9749495145        0.0554768684
 C         -5.5214415130        1.6193860074        1.2137210052
 C         -4.5215471963        1.0782324982        2.0076051008
 C         -3.9177046499       -0.1128585449        1.6394847876
 H         -3.1404130886       -0.5603883342        2.2385039244
 H         -4.2065397141        1.5801375569        2.9085139481
 H         -5.9867370309        2.5486109607        1.5022277018
 H         -6.7058829488        1.3969957664       -0.5584364820
 H         -5.6059653597       -0.7481199630       -1.2125893905
 H         -1.3588340826       -2.0932187263        0.6422469310
 H         -3.0463419611       -0.7166023717       -2.2464238862
 H         -2.5512412482        1.5489954800       -3.1255374166
 H         -0.8068648777        2.9271240647       -2.0871133373
 C          0.7948911470        2.2561074592        0.0787961874
 H          0.4341882809        2.5357060228        1.0796001852
 C          1.1955736953        3.5144332720       -0.6623519505
 C          0.4376907220        4.7894079755       -0.4498637140
 C          1.8193583369        4.6368350124        0.1095180110
 H          2.6272229694        5.1897205283       -0.3458362417
 H          1.9309063532        4.5023715141        1.1759162296
 H         -0.3919035591        4.7692486858        0.2403768415
 H          0.2983139805        5.4528738396       -1.2899553211
 H          1.5894362235        3.3076010561       -1.6506161194
 O          2.2813187762        0.9228524348       -1.9953564306
