  62
        -98.94294988
 C         -1.0833589215       -1.7356644725        0.1800419392
 C         -1.5882807058       -0.9062158468        1.2060420253
 C         -2.8012748216       -0.1316779705        0.8926655181
 C         -3.3421666131       -0.2387922184       -0.3332289512
 C         -4.5245064577        0.5104590917       -0.8827018428
 C         -4.0652658028        1.7893905490       -1.6044912868
 C         -3.9532835411        3.0251988178       -0.7138648633
 H         -3.5213409827        3.8235393791       -1.3218895977
 H         -4.9533977261        3.3435321742       -0.4101548422
 C         -3.0889210734        2.8472206450        0.5367152789
 H         -2.1753861119        2.3105822240        0.2704079901
 H         -2.7828582547        3.8403596444        0.8732415056
 C         -3.8252808968        2.1383110687        1.6834021471
 H         -4.8913221199        2.1132488806        1.4570615943
 H         -3.7169062909        2.7263227672        2.5974629612
 C         -3.3340960717        0.7216787260        2.0114041750
 H         -2.5096294267        0.7825068161        2.7291757862
 H         -4.1410443330        0.1737232880        2.5103400531
 H         -3.0936769230        1.5892483491       -2.0650805322
 H         -4.7702020138        2.0127093185       -2.4083278741
 H         -4.9995010638       -0.1500003072       -1.6112828364
 H         -5.2392254683        0.7376504883       -0.0970873045
 O         -2.8214660792       -1.0474624936       -1.2972021594
 C         -1.6777061999       -1.7964464527       -1.0799215299
 O         -1.3037016239       -2.4636282377       -2.0635346779
 O         -1.0388022269       -0.8047556291        2.3376096811
 C          0.1979946873       -2.5085507963        0.4230828987
 C          1.3001228934       -2.0175260517       -0.4862099018
 C          2.3278353067       -2.8349851226       -0.9420515193
 C          3.3240279013       -2.3185368753       -1.7526661653
 C          3.3315193500       -0.9827069923       -2.1126830362
 C          2.3097990576       -0.1563409276       -1.6593612745
 C          1.3127723671       -0.6799363078       -0.8529653172
 H          0.5114422157       -0.0340986926       -0.5323696801
 N          2.2593095660        1.2011622538       -2.0046043775
 S          1.5984580285        2.3147726387       -0.9488686572
 O          0.1637076834        2.1871680458       -0.9079529645
 O          2.1047894047        3.5871294762       -1.4187586989
 C          2.3262172275        1.9270983110        0.6326657736
 C          1.5631852437        1.4054290472        1.6559016598
 C          2.1826915172        1.0643484237        2.8481931401
 C          3.5471381138        1.2532509481        2.9979052387
 C          4.2999640920        1.7911525868        1.9643234185
 C          3.6868043748        2.1281995066        0.7695478179
 H          4.2361452401        2.5566020496       -0.0530013402
 H          5.3604125809        1.9428982460        2.0852212330
 H          4.0248170222        0.9816121256        3.9260308919
 H          1.5869283627        0.6418055733        3.6417216431
 H          0.5034178487        1.2592065554        1.5176259637
 H          3.0691374038        1.5584158523       -2.4882922586
 H          4.1086695471       -0.5848236147       -2.7467361436
 H          4.1112022955       -2.9662698430       -2.1073340389
 H          2.3429988791       -3.8777264822       -0.6698956505
 H          0.4891730574       -2.2718509531        1.4584675512
 C         -0.0397931378       -4.0010814271        0.3150843937
 C          0.7157945870       -4.9571711669        1.1878381071
 C         -0.7391139520       -4.7035095046        1.4392624425
 H         -1.4512979475       -5.4786598899        1.1995657703
 H         -1.0149726023       -4.1086915007        2.2978948797
 H          1.0029942864       -5.9130376605        0.7761901039
 H          1.4268438353       -4.5434340865        1.8868532314
 H         -0.2829627335       -4.3091838453       -0.6954639561
