  62
        -98.94455898
 C         -1.6987931109       -1.3425378403        0.3274213606
 C         -1.6829094910       -0.3374300308       -0.6702416298
 C         -3.0010229111        0.1063321787       -1.1498815501
 C         -4.1131763410       -0.4639843113       -0.6520458600
 C         -5.5159420011       -0.0709227318       -1.0125319503
 C         -6.0517116014        1.0049156385       -0.0576784308
 C         -5.0982126117        2.1832162488        0.1418684387
 H         -4.1996936017        1.8345584792        0.6567191190
 H         -5.5933685919        2.8936758090        0.8074434284
 C         -4.6913305218        2.8967510283       -1.1549880615
 H         -4.7529612720        3.9753263684       -0.9952796220
 H         -5.3931992716        2.6467856178       -1.9514821115
 C         -3.2659618917        2.5983646184       -1.6246591013
 H         -2.5645369218        2.7609243690       -0.8014904713
 H         -3.0114677018        3.3127668381       -2.4124877216
 C         -3.0282738513        1.1917692782       -2.1888006606
 H         -2.0382984912        1.1869943583       -2.6544563105
 H         -3.7718401111        0.9733417377       -2.9580825706
 H         -6.2344115114        0.5442523289        0.9158740994
 H         -7.0048921615        1.3681681681       -0.4459699711
 H         -5.5341124811        0.2953947377       -2.0369722504
 H         -6.1502759309       -0.9559576720       -0.9406486099
 O         -4.0862842508       -1.4436047209        0.2871039705
 C         -2.8863912108       -1.8889333404        0.8158056508
 O         -3.0060916107       -2.7628013100        1.6982036012
 H          2.0638851489       -0.6621190893        0.5404564807
 C          1.5071986688       -0.2135479691        1.3433774104
 C          0.2566246689       -0.7036064992        1.6793851105
 C         -0.4279356314       -0.1133337689        2.7396777002
 C          0.1276054783        0.9398362315        3.4391636898
 C          1.3689196682        1.4410140717        3.0832145196
 C          2.0570244684        0.8646202213        2.0247514600
 N          3.3252281184        1.3342853115        1.6304927999
 S          3.4855579784        1.8668376408        0.0391351996
 O          4.7018500582        2.6542175611        0.0508420094
 O          2.2965081182        2.5563746403       -0.4036929308
 C          3.7685269988        0.3910000204       -0.9125195597
 C          4.9481780990       -0.2958872092       -0.7010820593
 C          5.1906136293       -1.4488024394       -1.4299544587
 C          4.2562945395       -1.8881772601       -2.3562925986
 C          3.0797871293       -1.1829063805       -2.5594404290
 C          2.8272249090       -0.0302033202       -1.8311518396
 H          1.9079282089        0.5256115995       -1.9362562599
 H          2.3500186395       -1.5276613010       -3.2752435089
 H          4.4434623398       -2.7868304603       -2.9231584382
 H          6.1028525294       -2.0017385292       -1.2739564384
 H          5.6489645188        0.0862810613        0.0222190906
 H          3.7106710681        2.0307979518        2.2539548996
 H          1.7981813780        2.2743389220        3.6195243193
 H         -0.4126329119        1.3836799418        4.2621773295
 H         -1.4041695913       -0.4959451490        3.0067725703
 C         -0.3991184908       -1.8427431597        0.9362191310
 H         -0.6853513707       -2.6068431095        1.6729461113
 C          0.4852504294       -2.4780578600       -0.1149690287
 C          1.5776287496       -3.4187162195        0.2936828418
 C          0.3555871198       -3.9430663001       -0.3972493480
 H          0.4433452600       -4.2797884406       -1.4190487679
 H         -0.3635835501       -4.5009433601        0.1849093222
 H          1.6903700696       -3.6238359890        1.3473999820
 H          2.5076881397       -3.3931127296       -0.2540783581
 H          0.6687644394       -1.8237661303       -0.9581720689
 O         -0.6296199211        0.1620640693       -1.1445899600
