  62
        -98.94416928
 C         -1.8778474069       -1.3489672843        0.1162613652
 C         -2.0788881841       -0.3771150827       -0.8937370392
 C         -3.4360570346        0.1827124134       -0.9888457702
 C         -4.3928148323       -0.2387983833       -0.1432568451
 C         -5.7948508683        0.2934337201       -0.0940808062
 C         -5.9106257329        1.4646911971        0.8915552769
 C         -4.8361360388        2.5365945246        0.7077541972
 H         -5.0367301623        3.3259674847        1.4354886610
 H         -3.8610670660        2.1115532489        0.9578122889
 C         -4.7782380479        3.1434493329       -0.7011687134
 H         -5.7096418084        2.9400658604       -1.2308857371
 H         -4.6868248350        4.2280332440       -0.6113629763
 C         -3.5981871946        2.6661277782       -1.5496910262
 H         -2.6704323774        2.7837846994       -0.9834119808
 H         -3.5285219645        3.3128519518       -2.4285500966
 C         -3.6796397456        1.2185154365       -2.0506263544
 H         -4.6421610260        1.0520198722       -2.5380812320
 H         -2.8894190963        1.0795959474       -2.7940723017
 H         -6.8986359430        1.9146300829        0.7785222296
 H         -5.8304081577        1.0717200421        1.9077562153
 H         -6.0926883873        0.6130302920       -1.0908212816
 H         -6.4563663328       -0.5107226896        0.2325335100
 O         -4.1691871422       -1.1795737147        0.8079292324
 C         -2.9184164928       -1.7489311792        0.9630858575
 O         -2.8562219578       -2.5977287876        1.8746667161
 H          0.4192533721        0.3872518424       -0.3145649688
 C          0.8226559223        0.0450099214        0.6269742870
 C          0.4151209675       -1.1803769071        1.1347631625
 C          0.9452338463       -1.6042291997        2.3473827926
 C          1.8604948358       -0.8215622261        3.0306326010
 C          2.2632407212        0.4000833650        2.5209971384
 C          1.7312363065        0.8348057329        1.3145328791
 N          2.1450656453        2.0753187812        0.7756911554
 S          3.7538056417        2.1193939463        0.3026996348
 O          4.5858641286        2.1226716570        1.4790618814
 O          3.8786554735        3.2633296000       -0.5716433015
 C          3.9829272079        0.6036439114       -0.6080116995
 C          4.4491380880       -0.5179965676        0.0473958649
 C          4.5408650563       -1.7103561267       -0.6520091413
 C          4.1641139319       -1.7598514100       -1.9851088073
 C          3.6936355210       -0.6252651490       -2.6279821906
 C          3.5954834718        0.5686197087       -1.9324993096
 H          3.2370493434        1.4733949065       -2.3973693299
 H          3.3968380283       -0.6677568086       -3.6637822062
 H          4.2409441280       -2.6881658969       -2.5296068943
 H          4.9012859844       -2.5962427361       -0.1546774821
 H          4.7349839703       -0.4355679723        1.0830420617
 H          1.5688446131        2.3637610556       -0.0036348448
 H          2.9852985175        1.0174650817        3.0306779117
 H          2.2640582725       -1.1657110480        3.9707117030
 H          0.6284946885       -2.5514659202        2.7588408602
 C         -0.5481697894       -2.0471079863        0.3601453235
 H         -0.7870021350       -2.9204329335        0.9811941784
 C          0.1104200360       -2.5343079576       -0.9175917634
 C          1.0794700131       -3.6735111789       -0.8443818066
 C         -0.2668076992       -3.8732496121       -1.4721382271
 H         -0.3286153422       -3.9872197708       -2.5438897801
 H         -1.0040823960       -4.4481877515       -0.9303032732
 H          1.9469965202       -3.6491385719       -1.4844862331
 H          1.2567879057       -4.1179320928        0.1230389209
 H          0.3154310384       -1.7417618211       -1.6247906631
 O         -1.1874638411        0.0264699183       -1.6894469289
