  62
        -98.93720351
 C         -2.2912987002       -0.6399001706        0.1415425802
 C         -3.5273873901       -1.0026926313        0.7354749699
 C         -4.7403051502       -0.6148946407        0.0042732603
 C         -4.6196816003        0.0651525904       -1.1501936991
 C         -5.7696346703        0.5698123810       -1.9719245486
 C         -6.1644289205        1.9949418206       -1.5597563372
 C         -6.3425597905        2.1754180092       -0.0522535170
 H         -5.3758323205        2.0421347388        0.4388135328
 H         -6.6487825506        3.2099214990        0.1174145540
 C         -7.3686122104        1.2273911784        0.5841148721
 H         -8.0022055604        1.8017063177        1.2632375726
 H         -8.0160772103        0.8099301391       -0.1877761783
 C         -6.7573258202        0.0883268477        1.4020621810
 H         -6.0366506903        0.4947961771        2.1161255514
 H         -7.5570976802       -0.3843628029        1.9783369506
 C         -6.0635773801       -1.0154277114        0.5938661299
 H         -6.7367879901       -1.3796967008       -0.1848804904
 H         -5.8488662900       -1.8420194620        1.2775836591
 H         -5.3837319506        2.6808502410       -1.8965631066
 H         -7.0920693205        2.2573444310       -2.0716166069
 H         -5.4666328804        0.5749564921       -3.0202398786
 H         -6.6168942203       -0.1025977492       -1.8516288492
 O         -3.4203958903        0.4173709210       -1.6774921888
 C         -2.2256171303        0.0870649006       -1.0479385991
 O         -1.2143229203        0.4986622213       -1.6454579787
 O         -3.6112456000       -1.6199373723        1.8308820193
 C         -1.0221978601       -1.0330532111        0.8744999498
 C         -0.0541560702        0.1212526789        0.9328601709
 C         -0.4415613504        1.2887198283        1.5869912620
 C          0.4157606695        2.3673547183        1.6770126130
 C          1.6890767295        2.2977958389        1.1388068629
 C          2.0835085496        1.1401886096        0.4804737518
 C          1.2121915098        0.0646494996        0.3754957808
 H          1.5408487799       -0.8097228598       -0.1608313700
 N          3.3603542696        1.0371951403       -0.0938284583
 S          4.1373142098       -0.4595758697       -0.0283214397
 O          3.7587672899       -1.2413235886       -1.1783946705
 O          3.9150129199       -1.0739055409        1.2616163297
 C          5.8418999498        0.0450305307       -0.1798667293
 C          6.3743653297        0.2383433619       -1.4405404091
 C          7.6908855397        0.6562603222       -1.5544620687
 C          8.4485480397        0.8733280012       -0.4131188585
 C          7.9010403597        0.6737385999        0.8453497913
 C          6.5849020597        0.2567008297        0.9665095309
 H          6.1206090198        0.0781656487        1.9230870608
 H          8.4935746797        0.8397862492        1.7305694814
 H          9.4731831196        1.1972270014       -0.5051412782
 H          8.1208723796        0.8093413732       -2.5311444886
 H          5.7500389297        0.0480523427       -2.2981013693
 H          3.9745341396        1.7976040701        0.1626060824
 H          2.3645650094        3.1362941589        1.2166827037
 H          0.0966593794        3.2670049978        2.1817839539
 H         -1.4323316704        1.3390370178        2.0190029321
 H         -1.3554943201       -1.2417183521        1.9059845196
 C         -0.3820977200       -2.3152639706        0.3637644186
 C         -1.2036022999       -3.4039547901       -0.2568628824
 C         -0.2461005900       -2.6163454392       -1.0974730617
 H          0.6626190101       -3.0930365087       -1.4367737622
 H         -0.6415421801       -1.8943205885       -1.7948357810
 H         -0.9600041297       -4.4284839603       -0.0191410534
 H         -2.2610584699       -3.2225872601       -0.3834018622
 H          0.4390641801       -2.6359704011        0.9996918283
