  62
        -98.94753211
 C          1.3338055182        1.6287677847       -0.5000889558
 C          1.1939931997        0.3190876778       -1.0240070879
 C          2.3823995407       -0.5435383154       -0.9223724903
 C          3.5111470961       -0.0637131620       -0.3724032290
 C          4.7807724822       -0.8418850433       -0.1836786946
 C          4.8275427452       -1.5147129763        1.1944271852
 C          3.5625250924       -2.2997664094        1.5419286219
 H          3.7267480131       -2.7692863374        2.5146455856
 H          2.7250813574       -1.6073354351        1.6614551542
 C          3.1787064530       -3.3733909073        0.5146594935
 H          2.9026643438       -4.2843348863        1.0503660752
 H          4.0379905155       -3.6127780012       -0.1136469104
 C          1.9860941894       -2.9989405176       -0.3678325251
 H          1.6436828499       -3.9066549183       -0.8741035202
 H          1.1704080198       -2.6411591321        0.2672047933
 C          2.2596808848       -1.9453185225       -1.4495540808
 H          3.1492607041       -2.2243560795       -2.0187892162
 H          1.4027539043       -1.9342560088       -2.1294663551
 H          4.9696661360       -0.7421811339        1.9536973832
 H          5.6904968847       -2.1828236669        1.2233761095
 H          4.8603426127       -1.5916739425       -0.9683561328
 H          5.6208895267       -0.1500978510       -0.2677844772
 O          3.6137306175        1.2005519357        0.1109548462
 C          2.5311487709        2.0612512517        0.0781228384
 O          2.7603196492        3.1831872450        0.5757491684
 H         -1.2463866637        0.4467907951        0.0269852138
 C         -1.3864186994        1.1983040232        0.7854971745
 C         -0.7116121982        2.4057709692        0.6820739423
 C         -0.8934425721        3.3608096456        1.6753576212
 C         -1.7249748759        3.1035970753        2.7513117766
 C         -2.3758167077        1.8880613436        2.8645620245
 C         -2.1985527910        0.9268527418        1.8755623071
 N         -2.8498784239       -0.3125641842        1.9402095237
 S         -2.0974522292       -1.6819111172        1.3339443703
 O         -2.7958478177       -2.7813164265        1.9728462596
 O         -0.6705311924       -1.6485124081        1.5589674773
 C         -2.4920423554       -1.7110315661       -0.4017487660
 C         -3.5359920111       -0.9519284644       -0.8895553627
 C         -3.8421221915       -1.0265686136       -2.2389127408
 C         -3.1092046502       -1.8574758996       -3.0713396845
 C         -2.0703636105       -2.6201081237       -2.5629121839
 C         -1.7583786291       -2.5491724939       -1.2153136672
 H         -0.9495692473       -3.1169646923       -0.7850504548
 H         -1.4965347545       -3.2634769939       -3.2109035701
 H         -3.3450048515       -1.9076575171       -4.1229171915
 H         -4.6478370994       -0.4304574132       -2.6369758127
 H         -4.0805765416       -0.3050854896       -0.2217448045
 H         -3.3504117978       -0.5007511387        2.7960538910
 H         -3.0113154027        1.6806055537        3.7121370927
 H         -1.8580338682        3.8524012939        3.5175247752
 H         -0.3639130110        4.3000906125        1.6093836052
 C          0.2097514339        2.6554684911       -0.4875319497
 H          0.6972062012        3.6272653606       -0.3299866098
 C         -0.5717834928        2.7145418942       -1.7858349486
 C         -1.3358945212        3.9602189425       -2.1151166818
 C         -0.0985252685        3.6132252029       -2.8864961255
 H         -0.2006028343        3.2743977400       -3.9063202859
 H          0.7946381416        4.1946895562       -2.7078599409
 H         -2.2916749057        3.8622223440       -2.6059736838
 H         -1.2817488772        4.7807313179       -1.4156059508
 H         -1.0047176453        1.7648945813       -2.0701758428
 O          0.1496956672       -0.1284125737       -1.5672910416
