  62
        -98.94642997
 C          1.5556894089        1.0964296263        0.0310118692
 C          2.6097980719        0.8186679848        0.9382393072
 C          3.3311769763       -0.4425623099        0.7260938153
 C          2.9350027146       -1.2674802846       -0.2600475348
 C          3.5997494879       -2.5665537985       -0.6100243994
 C          4.6871694786       -2.3642485708       -1.6746361446
 C          5.6568492575       -1.2254254915       -1.3588996555
 H          5.1153164016       -0.2770611187       -1.3870162131
 H          6.3963963995       -1.1960561918       -2.1620907758
 C          6.3744331660       -1.3582692003       -0.0083473607
 H          7.4327028475       -1.1291414929       -0.1504414056
 H          6.3115080546       -2.3880392721        0.3452552847
 C          5.8571592094       -0.4160097959        1.0803539276
 H          5.8319745720        0.6072721301        0.6970318738
 H          6.5668643127       -0.4356805836        1.9116924559
 C          4.4738077872       -0.7521259577        1.6516446955
 H          4.3194873362       -0.1289550827        2.5373050219
 H          4.4484697204       -1.7989861773        1.9605538377
 H          4.2021291340       -2.1454206914       -2.6288159320
 H          5.2425459921       -3.2976653814       -1.7828576499
 H          2.8441738597       -3.2486297278       -1.0034533613
 H          4.0336102949       -3.0003354392        0.2886672186
 O          1.8998555425       -0.9835650549       -1.0892149226
 C          1.1954784140        0.2081869962       -0.9821723249
 O          0.2973561051        0.3384867153       -1.8353186269
 O          2.9305415726        1.5906596062        1.8801282189
 C          0.7629357494        2.3788711988        0.2308489695
 C         -0.6168836583        1.9766980198        0.6868923525
 C         -0.8277646192        1.6536538784        2.0248194734
 C         -2.0520146419        1.1749931831        2.4525075117
 C         -3.0841534975        0.9812939930        1.5503576634
 C         -2.8770605495        1.2884514016        0.2125261704
 C         -1.6608945881        1.8082662217       -0.2088874243
 H         -1.5170533770        2.0356885415       -1.2528125471
 N         -3.8973734889        1.0319570002       -0.7222474632
 S         -4.6223277389       -0.4746492805       -0.6265940381
 O         -5.0160480744       -0.8010591722       -1.9798394625
 O         -5.6972427237       -0.4235855598        0.3348795909
 C         -3.3663437181       -1.6057778589       -0.0458842161
 C         -3.6423772299       -2.4134908904        1.0392822192
 C         -2.6692429523       -3.2898366744        1.4912219416
 C         -1.4379831256       -3.3409454097        0.8561069737
 C         -1.1778671208       -2.5258978866       -0.2342172863
 C         -2.1484135465       -1.6507452682       -0.6944691776
 H         -1.9430939236       -1.0031968159       -1.5323445445
 H         -0.2193194404       -2.5490379966       -0.7288516492
 H         -0.6755678833       -4.0163908123        1.2114191291
 H         -2.8706955169       -3.9251807343        2.3386208646
 H         -4.6089303677       -2.3336766897        1.5099291739
 H         -3.6224819098        1.2306117836       -1.6737905233
 H         -4.0399782547        0.5895010048        1.8590834822
 H         -2.2024536100        0.9364634572        3.4942099287
 H         -0.0107404024        1.7680112574        2.7232266134
 H          1.2610801161        2.9055563259        1.0553204791
 C          0.7773024700        3.2660298369       -0.9955129743
 C          0.3238286336        4.6893156304       -0.8737717939
 C          1.7751153097        4.3801754577       -1.0820500927
 H          2.2177261489        4.6014164676       -2.0418155714
 H          2.4507457705        4.5125853323       -0.2497704683
 H         -0.2317990676        5.1267480029       -1.6891794142
 H          0.0123915246        5.0295020505        0.1022449023
 H          0.5499177197        2.7386553968       -1.9139086580
