  62
        -98.94204075
 C          1.5203097726        1.3516916946        0.2875685464
 C          2.1339294370        0.8691780462       -0.8940746848
 C          3.0858073128       -0.2375792679       -0.7108946590
 C          3.3288884521       -0.7041895233        0.5275656014
 C          4.2101378514       -1.8769891058        0.8447178827
 C          3.4005795096       -3.1814121477        0.8702974300
 C          2.4982888860       -3.3711679288       -0.3493685811
 H          1.7241369547       -2.5995046996       -0.3447254236
 H          1.9929233153       -4.3328662480       -0.2359481955
 C          3.2378374395       -3.3386307484       -1.6946156763
 H          2.8738186562       -4.1608039696       -2.3145760880
 H          4.3040645157       -3.5022810243       -1.5340378076
 C          3.0402651951       -2.0529539485       -2.5003677775
 H          1.9721581819       -1.8394043877       -2.5969738796
 H          3.4293606260       -2.2213137465       -3.5081200618
 C          3.7325367894       -0.8019291806       -1.9443495045
 H          3.6616129195       -0.0191838172       -2.7053971117
 H          4.7886370421       -1.0138177967       -1.7663746071
 H          2.7728655251       -3.1821233876        1.7641563997
 H          4.0957499960       -4.0195468051        0.9430061072
 H          5.0031157192       -1.9428858481        0.1025744998
 H          4.6569008002       -1.7174811653        1.8273593557
 O          2.7458160975       -0.1917943956        1.6404825152
 C          1.8214101436        0.8376086886        1.5491117471
 O          1.3459378843        1.2007974333        2.6419007206
 H         -0.3444297291       -0.0514981716       -0.4249339836
 C         -1.0256253617        0.7075979006       -0.7899091886
 C         -0.7357823538        2.0466110008       -0.5730836269
 C         -1.6374596854        2.9949704376       -1.0467236632
 C         -2.7905858009        2.6107760846       -1.7079886959
 C         -3.0716598795        1.2723669779       -1.9218447724
 C         -2.1717710095        0.3207932789       -1.4687713729
 N         -2.4683859352       -1.0551303218       -1.6565146585
 S         -3.5090566669       -1.6570297509       -0.4857896767
 O         -3.5313419970       -3.0905079794       -0.6658524265
 O         -4.7696749240       -0.9722148158       -0.6062934258
 C         -2.7170671659       -1.2332549806        1.0542982825
 C         -1.7687967278       -2.0923557808        1.5729806004
 C         -1.0609824768       -1.7073531154        2.7000384849
 C         -1.3006194101       -0.4699153224        3.2776569449
 C         -2.2548714081        0.3812598434        2.7426061624
 C         -2.9692817019        0.0013571740        1.6179985609
 H         -3.7149317083        0.6376272896        1.1690624991
 H         -2.4306802777        1.3455766142        3.1911843158
 H         -0.7266315532       -0.1586307416        4.1356096053
 H         -0.3143826668       -2.3640431597        3.1180915624
 H         -1.6080962268       -3.0447849370        1.0920737892
 H         -1.6392879867       -1.6335193473       -1.6674453758
 H         -3.9718879869        0.9505837084       -2.4189753558
 H         -3.4800838403        3.3620661538       -2.0612020143
 H         -1.4343934578        4.0420164110       -0.8890676747
 C          0.4848393235        2.4542027619        0.2197133074
 H          0.1602000643        2.6245581424        1.2575802125
 C          1.1059219463        3.7350645237       -0.3086523447
 C          0.7286843506        5.0651034474        0.2693198174
 C          2.0752883728        4.4768647326        0.5606845693
 H          2.9474362223        4.9185627537        0.1026715994
 H          2.2559382503        4.0786806621        1.5489326914
 H          0.0062811706        5.0802022699        1.0716748428
 H          0.6758177903        5.9172553570       -0.3915650727
 H          1.3270374027        3.6820212202       -1.3682545117
 O          1.8915208100        1.3221413757       -2.0431826531
