  62
        -98.93814695
 C         -2.5746441951       -1.1583474732        0.2015184957
 C         -2.7123793584       -0.3792754121       -0.9706041049
 C         -3.5707693272        0.8151962238       -0.8620006723
 C         -4.1569641590        1.0953595685        0.3148852928
 C         -5.0158387438        2.2835462678        0.6498738938
 C         -4.1673726919        3.4140110952        1.2567643383
 C         -3.5367832992        4.3644768742        0.2394721334
 H         -4.3188446666        4.9851849752       -0.2026429116
 H         -2.8638386330        5.0274900051        0.7883466611
 C         -2.7517712375        3.6905739979       -0.8892170858
 H         -2.0666217748        4.4303470756       -1.3076781171
 H         -2.1421722487        2.8809303730       -0.4830377095
 C         -3.6512607643        3.1544091245       -2.0129625107
 H         -4.6548752272        3.5609169982       -1.8894631133
 H         -3.2848620555        3.5205612061       -2.9740863858
 C         -3.7232078918        1.6239591427       -2.1212880510
 H         -2.9208350866        1.2670993393       -2.7747837805
 H         -4.6661403978        1.3444745412       -2.6027570673
 H         -4.7968868354        4.0043049269        1.9257299168
 H         -3.3850340406        2.9548565797        1.8672254260
 H         -5.7338028975        1.9468550388        1.4006225998
 H         -5.5588214819        2.6258810620       -0.2259141939
 O         -3.9867929835        0.3217289684        1.4238852764
 C         -3.1927670249       -0.8100985670        1.4007443108
 O         -3.1112435335       -1.4077984355        2.4943148172
 O         -2.1409010306       -0.6595511387       -2.0559796692
 C         -1.7063607316       -2.4024459005        0.1831512333
 C         -0.2888970232       -2.0494582964       -0.2008782471
 C          0.4708531149       -2.8033349883       -1.0854221532
 C          1.7729440438       -2.4366841779       -1.3800667383
 C          2.3451091212       -1.3183536278       -0.8031424118
 C          1.5994673073       -0.5645295792        0.0940081553
 C          0.2985626637       -0.9385264960        0.3922230875
 H         -0.2794220158       -0.3520640021        1.0975277287
 N          2.1701436100        0.5793934029        0.6816654688
 S          3.6512435302        0.4037795812        1.4560628513
 O          3.8209769360       -0.9348142463        1.9725059343
 O          3.7012892344        1.4774493936        2.4246699580
 C          4.8459615681        0.7215053989        0.1751193378
 C          4.7612139954        1.9165736431       -0.5120628087
 C          5.6895650771        2.1838795981       -1.5054436831
 C          6.6829604295        1.2587637896       -1.7906323823
 C          6.7565025986        0.0652247830       -1.0890057226
 C          5.8299278737       -0.2092323628       -0.0949853165
 H          5.8434906859       -1.1260294501        0.4725047494
 H          7.5297477054       -0.6522075616       -1.3120018442
 H          7.4040954903        1.4697266269       -2.5644320544
 H          5.6352467235        3.1107962893       -2.0533684178
 H          3.9762030602        2.6091087950       -0.2576444062
 H          1.5284326212        1.0945898311        1.2669364036
 H          3.3556336905       -1.0253974349       -1.0366824316
 H          2.3492911653       -3.0292815098       -2.0739151118
 H          0.0423718305       -3.6772627271       -1.5476343776
 H         -1.6904131275       -2.7772147028        1.2179006591
 C         -2.3287005573       -3.4584853903       -0.7069523185
 C         -2.1293219517       -4.9132853069       -0.4090883863
 C         -3.4637737008       -4.2753024602       -0.1694605413
 H         -4.2815275695       -4.5207781065       -0.8301662516
 H         -3.7683250156       -4.0882617494        0.8504491716
 H         -2.0340954994       -5.6010636320       -1.2357610331
 H         -1.5301605050       -5.1706329055        0.4514293017
 H         -2.3824191552       -3.1476082667       -1.7438240723
