  62
        -98.94327864
 C         -1.2499357600       -0.6149162425        0.5678510711
 C         -1.9655711288       -0.4372005194       -0.6416768372
 C         -2.9977597464        0.6090377629       -0.6208120148
 C         -3.1393321886        1.3943655581        0.4610138753
 C         -4.1340975909        2.5115965764        0.6226775586
 C         -5.5246982363        2.0464123592        1.0770968760
 C         -6.3470672333        1.3157919692        0.0146041040
 H         -7.3677631603        1.2426510417        0.3951869639
 H         -6.3805917935        1.9180902001       -0.8937784804
 C         -5.8427583910       -0.0951441001       -0.3191941147
 H         -5.1719595834       -0.4384182025        0.4717630019
 H         -6.6873106285       -0.7872429336       -0.3448366942
 C         -5.1224632909       -0.2093326498       -1.6627956271
 H         -5.8221456845        0.0063233630       -2.4731909880
 H         -4.7784338858       -1.2400297051       -1.7806101282
 C         -3.9069660424        0.7161374309       -1.8076185157
 H         -3.3391592174        0.4059821929       -2.6884464019
 H         -4.2320174228        1.7470168265       -1.9473208692
 H         -5.4086656175        1.4047056763        1.9537031217
 H         -6.0791540173        2.9350838916        1.3874174062
 H         -3.7274706014        3.1818123009        1.3834008512
 H         -4.2202556611        3.0639117731       -0.3136958141
 O         -2.3490028771        1.2693553072        1.5610670704
 C         -1.3996266997        0.2635115795        1.6435208363
 O         -0.7501735870        0.2610428390        2.7096119648
 O         -1.7683988988       -1.1085963831       -1.6866432008
 C         -0.1840632573       -1.6865636848        0.7122191845
 C          0.7645385846       -1.6257217443       -0.4598537428
 C          1.1275543020       -2.7189976313       -1.2345467258
 C          2.0321392234       -2.5679143524       -2.2717507837
 C          2.6125048917       -1.3415889760       -2.5397868509
 C          2.2532191846       -0.2408156058       -1.7701481985
 C          1.3317458252       -0.3912113338       -0.7483032153
 H          1.0323642028        0.4758565491       -0.1783741425
 N          2.8204498390        1.0241957150       -1.9928073719
 S          3.1564432757        1.9945075376       -0.6732587261
 O          1.9536271854        2.6276279667       -0.1916927543
 O          4.1923815759        2.8906813001       -1.1423590260
 C          3.8269819744        0.8817944784        0.5508055056
 C          3.1285678038        0.5989567729        1.7065372112
 C          3.6612901623       -0.3139751948        2.6037845764
 C          4.8755643042       -0.9243639640        2.3324722597
 C          5.5709348998       -0.6216894407        1.1713780498
 C          5.0425659662        0.2873720950        0.2703122764
 H          5.5580805407        0.5557152531       -0.6373931427
 H          6.5180318287       -1.0934932991        0.9654166140
 H          5.2816878470       -1.6377617731        3.0320106584
 H          3.1150960656       -0.5446892253        3.5048063539
 H          2.1817804212        1.0830271878        1.8917999672
 H          3.5604723467        1.0461078571       -2.6788210072
 H          3.3244743232       -1.2299378760       -3.3429899511
 H          2.2968172069       -3.4222654059       -2.8759247873
 H          0.6867044811       -3.6833539870       -1.0435814791
 H          0.3905710995       -1.3889742625        1.6058246328
 C         -0.7245582913       -3.0807708790        0.9937257373
 C         -2.0816078617       -3.2763556135        1.6002666859
 C         -1.8256243968       -3.6967150173        0.1858130472
 H         -1.7716122826       -4.7539454309       -0.0297964793
 H         -2.2462471474       -3.1077035073       -0.6129142135
 H         -2.2021431205       -4.0399709730        2.3541375114
 H         -2.6842493520       -2.3955681650        1.7712115168
 H          0.0539859791       -3.7515060940        1.3436829906
