  62
        -98.94569062
 C         -1.0056845006       -1.1406563589       -0.2426251395
 C         -2.0717344507       -1.2271046683        0.6915789004
 C         -2.9524766501       -0.0591688978        0.7848290802
 C         -2.7098211095        1.0177057420        0.0163622201
 C         -3.5076888389        2.2934505124        0.0026800700
 C         -4.7613378988        2.2378335230       -0.8815727301
 C         -5.9121677793        1.3942148336       -0.3317787101
 H         -6.1311810692        1.7014624038        0.6912599798
 H         -6.7930903391        1.6220509240       -0.9353484302
 C         -5.6638240201       -0.1200059865       -0.3746827299
 H         -6.5489339803       -0.6235149361       -0.7703299300
 H         -4.8410841302       -0.3352517170       -1.0604852999
 C         -5.3529073805       -0.7496544366        0.9831780301
 H         -5.1559922911       -1.8138153067        0.8303193803
 H         -6.2233004705       -0.6594407160        1.6369672301
 C         -4.1390986502       -0.1408051171        1.6972240602
 H         -4.3885180298        0.8458114831        2.0864987800
 H         -3.8720297206       -0.7915117172        2.5332968702
 H         -4.4766660990        1.8654369327       -1.8683233201
 H         -5.1188910583        3.2628584431       -1.0041950002
 H         -2.8475608484        3.0679636920       -0.3914663301
 H         -3.7925038188        2.5584218626        1.0211389799
 O         -1.6688491394        1.0714208014       -0.8530468298
 C         -0.7972817000        0.0027177209       -1.0145211696
 O          0.0878588202        0.2143503103       -1.8660353396
 O         -2.2788885813       -2.2399518781        1.4115119805
 C         -0.0934482512       -2.3524015094       -0.3444997993
 C          1.1449471988       -2.1360818200        0.4913250807
 C          1.3165645584       -2.8370925599        1.6801557408
 C          2.4352838184       -2.6286139905        2.4662754209
 C          3.3963875189       -1.7098446710        2.0871541408
 C          3.2302855694       -0.9979050010        0.9029672208
 C          2.1137253993       -1.2177179205        0.1088288307
 H          1.9966754197       -0.6569302305       -0.8048802394
 N          4.1890914999       -0.0575981216        0.5091644107
 S          3.8404864406        1.2159867785       -0.5040575594
 O          3.7386568905        0.7590408484       -1.8664830894
 O          4.9143530811        2.1571761080       -0.2489174294
 C          2.3110079610        1.9539427894        0.0447873804
 C          1.5596819414        2.6392332697       -0.8871743197
 C          0.4164957917        3.3033629403       -0.4734178299
 C          0.0399915816        3.2632747906        0.8592002501
 C          0.8005512112        2.5640680303        1.7825335502
 C          1.9528119908        1.9099924697        1.3770746304
 H          2.5579521605        1.3665581294        2.0844610705
 H          0.4999856911        2.5258950106        2.8174876602
 H         -0.8530409082        3.7758100611        1.1812208900
 H         -0.1789859280        3.8377550005       -1.1964262600
 H          1.8726853614        2.6257892894       -1.9186165997
 H          4.8935200600        0.1719330581        1.1936959508
 H          4.2690688990       -1.5402866614        2.6989795909
 H          2.5575193881       -3.1811175004        3.3853392609
 H          0.5557681580       -3.5378250595        1.9910018208
 H         -0.6618121817       -3.1746363691        0.1119470607
 C          0.2521978786       -2.7461543997       -1.7657386893
 C          0.6757827679       -4.1567619300       -2.0417543291
 C         -0.6617370818       -3.6699033693       -2.5111432293
 H         -0.8119684016       -3.5035099194       -3.5673366393
 H         -1.5425190720       -4.0252649188       -1.9960210493
 H          1.4488346279       -4.3264910905       -2.7754950990
 H          0.7002536475       -4.8442646499       -1.2096988591
 H          0.7300171991       -1.9583594700       -2.3334815293
