  62
        -98.93024979
 C         -1.2154334956       -0.5786200280        0.8511716951
 C         -2.1599298636       -0.6607486166       -0.2000725815
 C         -2.8808419344        0.5843341918       -0.5265948102
 C         -2.5728344649        1.7205645860        0.1190488864
 C         -3.1387968980        3.1035613819       -0.0878360307
 C         -4.6563482913        3.2270076043       -0.2830252837
 C         -5.4957229397        2.1934671496        0.4824690532
 H         -4.8701755432        1.6651836360        1.2039024767
 H         -6.2732032543        2.7146727669        1.0440204868
 C         -6.1801720151        1.1801130511       -0.4379939576
 H         -7.0196668155        0.7306020939        0.0976743400
 H         -6.5891582940        1.7114884831       -1.3000677965
 C         -5.2931096058        0.0369895420       -0.9299277712
 H         -5.0636031510       -0.6376050515       -0.1008263954
 H         -5.8623119606       -0.5386027253       -1.6636836971
 C         -3.9585849478        0.4609033000       -1.5651649866
 H         -3.6358505156       -0.3382741392       -2.2381793721
 H         -4.0674027819        1.3757019019       -2.1429712252
 H         -4.8928122726        3.1611738875       -1.3441178896
 H         -4.9339209013        4.2324168957        0.0382035156
 H         -2.8362269198        3.6693746101        0.7968502038
 H         -2.6261471025        3.5514388186       -0.9446943711
 O         -1.6143377816        1.7665300973        1.0870245910
 C         -0.9133922274        0.6366422693        1.4644030121
 O         -0.0604428002        0.8406827384        2.3539819713
 H          1.6088094060       -0.4813157357        0.3114124309
 C          1.4058475403       -1.3333760808       -0.3193654394
 C          0.3896604139       -2.2137113713        0.0478018416
 C          0.1389117049       -3.2973676132       -0.7827887985
 C          0.8752609236       -3.4749148996       -1.9434264406
 C          1.8465968071       -2.5693397289       -2.3236124650
 C          2.1051829706       -1.4756000193       -1.5038112916
 N          3.0729798554       -0.5224410893       -1.8509510275
 S          2.8940588394        1.0873855687       -1.4194221902
 O          1.5064570628        1.4711530895       -1.3012075080
 O          3.6682233849        1.8035340591       -2.4134560167
 C          3.7476703173        1.1947992536        0.1392562170
 C          3.0768312819        1.5220868002        1.2994705141
 C          3.7891375050        1.5859008418        2.4880099567
 C          5.1504977226        1.3277492432        2.4955421711
 C          5.8115393930        1.0053330563        1.3191891286
 C          5.1058301948        0.9376862134        0.1299179730
 H          5.5803891673        0.6995092775       -0.8072741707
 H          6.8709691382        0.8060625034        1.3273826329
 H          5.6974825150        1.3788735505        3.4237664091
 H          3.2647445677        1.8314434383        3.3977733674
 H          2.0129523162        1.7064409287        1.2752733708
 H          3.4610698051       -0.6259449412       -2.7769240313
 H          2.3910414512       -2.6958523007       -3.2469739059
 H          0.6644906722       -4.3234099328       -2.5770182430
 H         -0.6493008005       -3.9938616317       -0.5631275937
 C         -0.3838464268       -1.7877850949        1.2724952205
 H          0.3575567741       -1.3806610395        1.9786766732
 C         -1.2094041637       -2.7712046335        2.0866585845
 C         -2.2233024255       -3.7324329260        1.5478560485
 C         -0.9490994418       -4.2464716538        2.1486203964
 H         -1.0032140982       -4.7283022448        3.1136882654
 H         -0.1938796582       -4.6566049736        1.4980429489
 H         -3.1371641498       -3.8546335570        2.1124956276
 H         -2.3772124345       -3.7668622431        0.4823564557
 H         -1.4818021135       -2.3018028592        3.0300789185
 O         -2.3985537893       -1.7092104035       -0.8496709691
