  62
        -98.93803039
 C          2.3048956522        1.3658723622       -0.0093624134
 C          3.0360709554        0.5994616455        0.9278281025
 C          3.7571511977       -0.5653743412        0.3943218767
 C          3.6713090736       -0.8422543459       -0.9197202286
 C          4.2804632676       -2.0350539317       -1.6004603536
 C          3.4236880577       -3.2894356582       -1.3340769967
 C          4.1190703712       -4.3629356134       -0.4957039534
 H          3.3560048903       -5.0823140672       -0.1905174608
 H          4.8379459036       -4.8919868108       -1.1247577813
 C          4.8626666684       -3.8652432333        0.7475738136
 H          5.0693698434       -4.7416481223        1.3653256410
 H          5.8302130314       -3.4540726968        0.4563442395
 C          4.1240234416       -2.8253618001        1.5999850803
 H          4.3115762077       -3.0523259209        2.6514724114
 H          3.0465201647       -2.8997051139        1.4471292332
 C          4.5737381735       -1.3705119552        1.3671561564
 H          5.6235033962       -1.3570498449        1.0621121251
 H          4.4988164309       -0.8261041032        2.3131782396
 H          3.1279894491       -3.7367943632       -2.2843789457
 H          2.5005235298       -2.9771051139       -0.8394330366
 H          4.3111387567       -1.8178356673       -2.6682710002
 H          5.2973934288       -2.1830773842       -1.2439845637
 O          2.9403463133       -0.0942286312       -1.7863362224
 C          2.2289889499        1.0174948382       -1.3579934694
 O          1.5917441271        1.5959674560       -2.2571300029
 O          3.0797674427        0.8744931837        2.1585541108
 C          1.5192978570        2.5705438429        0.4808327567
 C          0.0470945981        2.3046806234        0.2833968990
 C         -0.8055279371        3.1387821453       -0.4258117007
 C         -2.1352999202        2.7937511350       -0.6007980013
 C         -2.6430091756        1.6218879069       -0.0711610964
 C         -1.8000604937        0.7846540820        0.6486983584
 C         -0.4717424854        1.1338663773        0.8245747033
 H          0.1864908614        0.4766785570        1.3807876386
 N         -2.3084196042       -0.4115393264        1.1965054234
 S         -2.9485631430       -1.5185847989        0.1015845435
 O         -2.8278859153       -2.8062587923        0.7514078170
 O         -2.3309724323       -1.3953953959       -1.1992603038
 C         -4.6686315519       -1.0697899403        0.0145804006
 C         -5.4079386054       -1.1025034360        1.1809133093
 C         -6.7477576088       -0.7523622941        1.1330484677
 C         -7.3223026637       -0.3800081656       -0.0733366361
 C         -6.5670953319       -0.3561940210       -1.2359372158
 C         -5.2256467188       -0.7040846206       -1.1949393694
 H         -4.5963701829       -0.6938077002       -2.0707571958
 H         -7.0151517822       -0.0669921516       -2.1729784348
 H         -8.3650402652       -0.1065764619       -0.1078658568
 H         -7.3383154116       -0.7698131272        2.0347666933
 H         -4.9227525763       -1.4017639185        2.0948746883
 H         -1.6454789030       -0.8799525488        1.7987872047
 H         -3.6760066914        1.3484066977       -0.2119917739
 H         -2.7851884862        3.4473313982       -1.1623202160
 H         -0.4266283980        4.0514612006       -0.8549174938
 H          1.7146346777        2.6251739191        1.5619887053
 C          2.0108321678        3.8449922480       -0.1693178646
 C          1.8181338686        5.1607050269        0.5219766703
 C          3.1860178534        4.5564080281        0.4291675413
 H          3.9077064927        5.0070674925       -0.2353548187
 H          3.6215706232        4.1319343255        1.3220161982
 H          1.6019910105        6.0315042834       -0.0780042859
 H          1.3248564570        5.1521163651        1.4820342897
 H          1.9422508004        3.8164337697       -1.2506310482
