  62
        -98.94463595
 C         -1.6857057281       -1.4776744308       -0.2236219747
 C         -1.5681009235       -0.2588413044       -0.9362764843
 C         -2.8256511560        0.4664207729       -1.1779904809
 C         -3.9858697391       -0.0468779704       -0.7323741373
 C         -5.3234712344        0.6233889523       -0.8474946030
 C         -5.6142243114        1.4902403849        0.3857665775
 C         -4.4671713874        2.4254166329        0.7704134320
 H         -4.7970697091        3.0060067643        1.6348149720
 H         -3.6098663365        1.8299521162        1.0942069391
 C         -4.0240275048        3.3807468728       -0.3464891242
 H         -4.8039020804        3.4491321642       -1.1060805630
 H         -3.8950444422        4.3789029105        0.0774470250
 C         -2.6991018817        3.0082023623       -1.0150155507
 H         -1.9284771728        2.8557402707       -0.2536430148
 H         -2.3806291689        3.8538693506       -1.6310432878
 C         -2.7357314879        1.7701780682       -1.9197522917
 H         -3.5525342937        1.8633994623       -2.6384982104
 H         -1.7919692650        1.7385063709       -2.4718447046
 H         -6.5135277842        2.0774343125        0.1913554897
 H         -5.8149943831        0.8306721083        1.2331687275
 H         -5.3422829891        1.2350672362       -1.7472272701
 H         -6.0904143737       -0.1488191176       -0.9266650979
 O         -4.0627252784       -1.2289260267       -0.0699330861
 C         -2.9218616415       -1.9579630471        0.2171735949
 O         -3.1357233701       -3.0088899553        0.8548522651
 H          1.7216551564       -0.6458319138        0.1614165712
 C          1.3158231528       -0.7987579733        1.1453517971
 C          0.2141114376       -1.6214103881        1.3190995425
 C         -0.3004487304       -1.7910212189        2.6023143481
 C          0.2800211846       -1.1552790899        3.6828301638
 C          1.3751980666       -0.3274181886        3.5036083701
 C          1.8899778081       -0.1429289980        2.2265126249
 N          3.0088254366        0.6776805787        2.0105037326
 S          2.9565860332        1.8123580027        0.7684762115
 O          3.9520952573        2.7943931490        1.1512133338
 O          1.6181946129        2.3153424561        0.5744479188
 C          3.5535943264        0.9317556084       -0.6579371566
 C          2.7239223824        0.6979883655       -1.7361560413
 C          3.2290538453        0.0008817820       -2.8236897484
 C          4.5423936395       -0.4424173385       -2.8156210981
 C          5.3626051007       -0.1938745628       -1.7249921942
 C          4.8657960398        0.5004944223       -0.6343425901
 H          5.4691631984        0.7217681215        0.2301163786
 H          6.3833693464       -0.5407697285       -1.7219579340
 H          4.9270858137       -0.9859351430       -3.6643898998
 H          2.5873061157       -0.1961353368       -3.6680648332
 H          1.6983888282        1.0322061368       -1.6988812440
 H          3.3868071059        1.0918957368        2.8508969793
 H          1.8266807371        0.1751608915        4.3460694053
 H         -0.1256468921       -1.2991090786        4.6731652751
 H         -1.1680253099       -2.4224323129        2.7363363011
 C         -0.4685807061       -2.3081195489        0.1594812155
 H         -0.8663582321       -3.2635054828        0.5285520068
 C          0.4529001456       -2.5835582610       -1.0097939216
 C          1.5353241059       -3.6084163347       -0.8573215988
 C          0.3532197189       -3.8908234736       -1.7338684938
 H          0.4931304856       -3.8973773042       -2.8042966652
 H         -0.3824341670       -4.6017685486       -1.3863681760
 H          2.4905018827       -3.4205595045       -1.3232263455
 H          1.5999947360       -4.1264882607        0.0876699821
 H          0.6702717440       -1.7064711796       -1.6045913976
 O         -0.4830641758        0.2089244333       -1.3672602518
