  62
        -98.93398966
 C          1.7699258094        0.3783280599        0.8392990308
 C          2.7634246794        1.1171006705        0.1533101114
 C          4.1522777495        0.6305728605        0.2844535712
 C          4.4080238095       -0.4793424499        0.9995479905
 C          5.7108983695       -1.1807115801        1.3228568202
 C          6.9839007096       -0.8664041294        0.5408609805
 C          6.9546905097       -1.2866977384       -0.9280992898
 H          7.8729677898       -0.9323405880       -1.4016610295
 H          6.9551279798       -2.3785839284       -0.9775154905
 C          5.7567422998       -0.7894124779       -1.7334655096
 H          5.8691628099       -1.1542999272       -2.7581070098
 H          4.8392542298       -1.2287847383       -1.3360580200
 C          5.5950544797        0.7282190921       -1.7952721285
 H          4.8133815797        0.9450315825       -2.5279911285
 H          6.5219368297        1.1823942024       -2.1508202581
 C          5.1904457995        1.4062638311       -0.4745114281
 H          4.7358290894        2.3710471313       -0.7172674075
 H          6.0566628694        1.6013818508        0.1529981121
 H          7.7908759896       -1.4219567797        1.0265906802
 H          7.2305968295        0.1874614105        0.6295685013
 H          5.8996362994       -0.9834761508        2.3841005603
 H          5.4973359096       -2.2514422700        1.2433021594
 O          3.4130864895       -1.1661598305        1.6362623299
 C          2.0924495595       -0.7639426605        1.5741392801
 O          1.3070391494       -1.4930411710        2.2141791195
 O          2.5307332594        2.1415798610       -0.5366263879
 C          0.2950701094        0.7483798698        0.8222603309
 C         -0.3879119704        0.1170075706       -0.3636960196
 C          0.0946893297        0.3120254215       -1.6552822494
 C         -0.5229590001       -0.2944429978       -2.7325315299
 C         -1.6361710101       -1.0959026680       -2.5469365605
 C         -2.1254361202       -1.2975880189       -1.2618872207
 C         -1.5025028204       -0.6880995196       -0.1797241802
 H         -1.8761883705       -0.8777152403        0.8154803896
 N         -3.2441357602       -2.1129540992       -1.0486349114
 S         -4.3285402703       -1.7853338301        0.1721027387
 O         -3.7983155404       -2.1919753909        1.4491382285
 O         -5.5447528702       -2.4512050099       -0.2441725719
 C         -4.5792104705       -0.0176567601        0.1546022399
 C         -4.6335386506        0.6598067491        1.3556774704
 C         -4.8660179608        2.0265902090        1.3479356613
 C         -5.0316613907        2.6913895099        0.1430936017
 C         -4.9734956605        1.9973679107       -1.0555019887
 C         -4.7516247604        0.6297490507       -1.0532092597
 H         -4.7110732303        0.0679428414       -1.9718407000
 H         -5.0992121705        2.5171769413       -1.9914416084
 H         -5.2027392508        3.7559544099        0.1389518225
 H         -4.9089162409        2.5662213384        2.2803857217
 H         -4.4831657807        0.1067086684        2.2693725100
 H         -3.6932179101       -2.4633991686       -1.8812504017
 H         -2.1159613000       -1.5732906175       -3.3877550509
 H         -0.1369999901       -0.1391507671       -3.7285982597
 H          0.9579830197        0.9430098617       -1.8000865889
 H         -0.1267026907        0.2838376092        1.7280030506
 C          0.0574776793        2.2496974197        0.9254379020
 C         -0.6028355407        3.0600826404       -0.1459253476
 C         -1.3382975608        2.7618234295        1.1231589822
 H         -1.5019765809        3.5593168990        1.8316343927
 H         -2.1380673407        2.0375055595        1.0787752316
 H         -0.2323101508        4.0600886506       -0.3106364768
 H         -0.9190731206        2.5583572210       -1.0463092979
 H          0.8410678792        2.7462398194        1.4876070424
