  62
        -98.93889215
 C         -1.8937254785       -0.2170574714        0.0121822664
 C         -2.8973338219       -1.1236077305        0.4239565591
 C         -4.2258943498       -0.5506155813        0.6995643302
 C         -4.4042682262        0.7750332870        0.5642639099
 C         -5.6818142966        1.5474119570        0.7444891412
 C         -6.4097782754        1.7143289689       -0.6001447817
 C         -7.3503204007        0.5680071859       -0.9701409992
 H         -8.2271776505        0.5999304158       -0.3199815639
 H         -7.6937578964        0.7468729147       -1.9916746067
 C         -6.7372278366       -0.8328978697       -0.8960153565
 H         -7.3438818719       -1.4962710278       -1.5156177098
 H         -5.7337379592       -0.8185481966       -1.3253397137
 C         -6.6877519451       -1.3955837567        0.5322806002
 H         -7.1300300004       -2.3939194877        0.5422882596
 H         -7.3083829180       -0.7765102744        1.1798948190
 C         -5.2821472551       -1.5285071669        1.1374280029
 H         -4.8695997467       -2.5107105371        0.8864160379
 H         -5.3594761118       -1.4927394028        2.2292153866
 H         -5.6516172878        1.8354067804       -1.3782729473
 H         -6.9953709571        2.6354667594       -0.5698280588
 H         -6.3208631263        1.0696493289        1.4811190264
 H         -5.3984302797        2.5360755539        1.1114267914
 O         -3.4054592273        1.6156056647        0.1765770165
 C         -2.1332936817        1.1509310029       -0.1123501852
 O         -1.3285169354        2.0360944560       -0.4586222292
 O         -2.6930537928       -2.3608976885        0.5551469847
 C         -0.5070005776       -0.7519586031       -0.3000307780
 C          0.5064279817       -0.0902267183        0.5994857591
 C          0.3252640285       -0.1781049698        1.9785537098
 C          1.2030373849        0.4373524525        2.8480092386
 C          2.2895292086        1.1446598846        2.3620615507
 C          2.4839994566        1.2337580388        0.9898740236
 C          1.5991005014        0.6115723478        0.1174827497
 H          1.7673593231        0.7144223350       -0.9407873092
 N          3.5693289542        1.9588411113        0.4715991436
 S          4.5054020377        1.3189139446       -0.7557874630
 O          5.7091196733        2.1206574337       -0.7478879391
 O          3.7681042419        1.2887934823       -1.9922955800
 C          4.8747328064       -0.3370735347       -0.2069087302
 C          4.1190146018       -1.3961225194       -0.6662887907
 C          4.3761336441       -2.6650266979       -0.1710978545
 C          5.3769740906       -2.8514260857        0.7695853806
 C          6.1306402439       -1.7770323941        1.2179151358
 C          5.8760039415       -0.5059968880        0.7299181147
 H          6.4454050266        0.3537855871        1.0439158725
 H          6.9116884285       -1.9263269996        1.9459049626
 H          5.5719249939       -3.8405685418        1.1529247343
 H          3.7924788730       -3.5018115117       -0.5204800730
 H          3.3522286416       -1.2128408319       -1.4004474540
 H          4.1504762269        2.3942950578        1.1729057156
 H          2.9725352560        1.6349992851        3.0389876093
 H          1.0439037669        0.3662217876        3.9133955417
 H         -0.5258584463       -0.7279011056        2.3567656265
 H         -0.5464359500       -1.8217620342       -0.0472133702
 C         -0.2062343151       -0.6131367464       -1.7767317317
 C          0.7175085112       -1.5816400892       -2.4504321580
 C         -0.7542858214       -1.6325180804       -2.7283685540
 H         -1.1125364438       -1.2988234232       -3.6907248734
 H         -1.3260435125       -2.4466651419       -2.3073267890
 H          1.3763650567       -1.2126614643       -3.2228857531
 H          1.1374743698       -2.3706823507       -1.8448043259
 H         -0.1960661932        0.4190223362       -2.1098428411
