  62
        -98.94650194
 C          1.1098141783        1.7939130007       -0.2190237096
 C          1.2556716794        0.6208861713       -1.0019111303
 C          2.5823190998       -0.0167942379       -0.9627028502
 C          3.5596452192        0.5205585523       -0.2126861295
 C          4.9351590995       -0.0559685269       -0.0452687494
 C          5.0010139897       -1.0038761576        1.1598196900
 C          3.8854546403       -2.0492317583        1.1900540090
 H          4.0605201105       -2.6875265788        2.0592646087
 H          2.9241790100       -1.5543908691        1.3503467290
 C          3.7930882514       -2.9190822176       -0.0710051215
 H          4.7274463415       -2.8632854767       -0.6319557712
 H          3.6562813219       -3.9591038379        0.2330356778
 C          2.6213949915       -2.5684649279       -0.9901988417
 H          1.7038437312       -2.5205678188       -0.3970772420
 H          2.5047609722       -3.3801166275       -1.7147420323
 C          2.7673135009       -1.2625124773       -1.7824720209
 H          1.9779698111       -1.2417233873       -2.5397402512
 H          3.7336048910       -1.2487807663       -2.2919607306
 H          4.9355341790       -0.4084743782        2.0735067204
 H          5.9701009200       -1.5065646170        1.1505191801
 H          5.2138019601       -0.5870002462       -0.9534440596
 H          5.6347058489        0.7667117634        0.1134461313
 O          3.3877620182        1.6503643217        0.5203508511
 C          2.1656345977        2.2999863509        0.5438782810
 O          2.1449125568        3.3182064105        1.2664468417
 O          0.3460876899        0.1143237611       -1.7086539109
 C         -0.1880040422        2.5761236598       -0.1136752096
 C         -1.1077400822        2.0112688785        0.9437981097
 C         -1.8688964631        2.8534052476        1.7471353000
 C         -2.7426241330        2.3305723364        2.6831774193
 C         -2.8831157022        0.9621367362        2.8299746485
 C         -2.1215877414        0.1117327972        2.0354460582
 C         -1.2410115414        0.6410181284        1.1025320589
 H         -0.6497794707       -0.0297373009        0.5018875787
 N         -2.2318121505       -1.2751889129        2.1639282873
 S         -1.6888399494       -2.3343533619        1.0008483669
 O         -2.3442920287       -3.5822709025        1.3410848859
 O         -0.2477327094       -2.3765798009        1.0016021174
 C         -2.3074518992       -1.7642753513       -0.5724311930
 C         -1.5858237386       -2.0774198502       -1.7052282329
 C         -2.0619951385       -1.6671796997       -2.9397293028
 C         -3.2442157889       -0.9499135505       -3.0194129228
 C         -3.9629679795       -0.6505302716       -1.8725416629
 C         -3.4961986097       -1.0650343321       -0.6360111330
 H         -4.0392298201       -0.8382936630        0.2669710970
 H         -4.8819039898       -0.0899617322       -1.9359430729
 H         -3.6049686288       -0.6181195801       -3.9805218527
 H         -1.4985679580       -1.8957346088       -3.8299276628
 H         -0.6577661883       -2.6157939296       -1.6021254329
 H         -3.0024017705       -1.6259196538        2.7104605269
 H         -3.5661076322        0.5522693253        3.5579044880
 H         -3.3240527537        2.9943040757        3.3046010395
 H         -1.7622782437        3.9225782777        1.6436482207
 H          0.0974882870        3.5906081798        0.1982170011
 C         -0.9471476718        2.6707700201       -1.4253655698
 C         -1.8218149125        3.8570931397       -1.6908743994
 C         -0.5362668321        3.6898071810       -2.4431265391
 H         -0.5737349616        3.4168258916       -3.4867065492
 H          0.2903838174        4.3391026414       -2.1922029384
 H         -2.7496081522        3.7009974894       -2.2188627198
 H         -1.8671895333        4.6304468892       -0.9394661990
 H         -1.2776537211        1.7073310501       -1.7917230005
