  62
        -98.94439116
 C         -2.5951545594       -1.3110442203        0.0969963995
 C         -2.6628507594       -0.3329999600       -0.9245702601
 C         -3.6388211993        0.7481869600       -0.7168944497
 C         -4.3981657393        0.7564405597        0.3929521404
 C         -5.3939711892        1.8212459296        0.7482624909
 C         -4.7497188190        2.9279817993        1.5944766412
 C         -3.4380505290        3.4629143194        1.0192489213
 H         -3.0942375789        4.2615492391        1.6802901916
 H         -2.6820239391        2.6743303993        1.0535395610
 C         -3.5447558891        3.9988825899       -0.4152687985
 H         -4.5884152091        4.2009253201       -0.6591831183
 H         -3.0073658790        4.9477330699       -0.4745774982
 C         -2.9438704792        3.0812788203       -1.4819003689
 H         -1.9274593892        2.7997506301       -1.1915020490
 H         -2.8703783993        3.6475619106       -2.4144833487
 C         -3.7356232693        1.8023784404       -1.7838322693
 H         -4.7789600193        2.0551041006       -1.9828834691
 H         -3.3116400794        1.3553585707       -2.6877544695
 H         -5.4647607190        3.7465534093        1.6940899715
 H         -4.5474176590        2.5293184689        2.5911686910
 H         -5.8084048892        2.2428234200       -0.1653766290
 H         -6.1986768892        1.3595811795        1.3228857707
 O         -4.3099000893       -0.2000508907        1.3508573601
 C         -3.4066477994       -1.2408904607        1.2347267096
 O         -3.4244627293       -2.0392451510        2.1924286293
 H          0.1106104505       -1.0874169799       -1.4869290806
 C          0.5233601805       -1.3154789303       -0.5160009307
 C         -0.2391347395       -2.0287986106        0.3974238891
 C          0.2908170006       -2.2719150711        1.6599634090
 C          1.5542672507       -1.8171327813        1.9930304891
 C          2.3126181206       -1.1085179610        1.0778672993
 C          1.7849120306       -0.8457351305       -0.1792310106
 N          2.5398093106       -0.1160521902       -1.1148428904
 S          3.2357123407        1.3238986695       -0.6050434999
 O          2.4768951208        1.9360092092        0.4619886804
 O          3.4076199207        2.1122079199       -1.8058767796
 C          4.8386231607        0.8233282392       -0.0105894302
 C          5.2645483608        1.2165233387        1.2429181399
 C          6.5199521008        0.8212730285        1.6787642897
 C          7.3229320307        0.0448899187        0.8574799893
 C          6.8815304606       -0.3391892708       -0.4001115908
 C          5.6285608606        0.0537965294       -0.8423205505
 H          5.2487321405       -0.2220363602       -1.8117998506
 H          7.5084655705       -0.9435802506       -1.0356912910
 H          8.2982660107       -0.2630896215        1.1997637292
 H          6.8647515909        1.1194128181        2.6558594398
 H          4.6025974209        1.8135740385        1.8499947102
 H          2.0609399605        0.0134361401       -1.9951877603
 H          3.2947539907       -0.7458212712        1.3338618393
 H          1.9532898007       -2.0152618717        2.9762169990
 H         -0.3059785994       -2.8063678413        2.3853193688
 C         -1.6346353495       -2.4915476904        0.0523157190
 H         -1.9671371595       -3.1699627606        0.8489516588
 C         -1.6819417297       -3.2408781999       -1.2646341712
 C         -1.1198604398       -4.6280772799       -1.3274241818
 C         -2.6011938098       -4.4150233398       -1.4049666216
 H         -3.0977992098       -4.5693424394       -2.3512094616
 H         -3.2020243897       -4.6848299201       -0.5485223816
 H         -0.7151042097       -5.0432187603       -0.4168260719
 H         -0.5964415098       -4.9318781996       -2.2208580719
 H         -1.5580603397       -2.6059221396       -2.1315719610
 O         -1.9611927995       -0.3426420696       -1.9721211202
