  62
        -98.93348444
 C         -2.3831796605       -0.9399928009       -0.5117074759
 C         -3.6501881608       -1.0574799882        0.1073084647
 C         -4.6528652646       -0.0222447393       -0.2082139275
 C         -4.3121738189        0.9693887968       -1.0523370078
 C         -5.1395567825        2.1501008722       -1.4859215370
 C         -5.2349226082        3.2351301616       -0.4013131456
 C         -5.5013441867        2.7128131061        1.0080036764
 H         -4.7093828624        2.0153558746        1.2875931119
 H         -5.4402353393        3.5621648739        1.6936427977
 C         -6.8606213795        2.0471915117        1.2099059747
 H         -6.9491374192        1.8084555180        2.2728992292
 H         -7.6492407983        2.7618428759        0.9639661444
 C         -7.1033641268        0.7628224892        0.4141551466
 H         -7.3428719542        0.9822661068       -0.6228135914
 H         -7.9870574542        0.2788811235        0.8403970971
 C         -5.9713785644       -0.2570357768        0.4889269952
 H         -6.3403027963       -1.2158937526        0.1049170303
 H         -5.7268615100       -0.4446513598        1.5407259262
 H         -6.0186570532        3.9393052230       -0.6855897743
 H         -4.2856452851        3.7760092074       -0.3807277115
 H         -4.6433622349        2.5760478347       -2.3606829659
 H         -6.1277217087        1.8211352026       -1.7930176451
 O         -3.0759999946        1.0458313664       -1.6215022930
 C         -2.0841401763        0.1152925771       -1.3723323374
 O         -1.0165275346        0.3371383761       -1.9752346254
 O         -3.9407466804       -1.9932852476        0.9008887032
 C         -1.3257736715       -1.9803648165       -0.1818241264
 C         -0.2669014671       -1.3262332913        0.6714700034
 C         -0.4870977850       -1.1922755345        2.0394690452
 C          0.4418276088       -0.5615772679        2.8455725863
 C          1.6042517431       -0.0398420688        2.3049555952
 C          1.8299572536       -0.1615139329        0.9404436056
 C          0.9041782029       -0.8139028096        0.1352354229
 H          1.0837808427       -0.8904260912       -0.9257681680
 N          2.9896432434        0.4014096537        0.3678841808
 S          4.4781086668       -0.0271848138        1.0391772138
 O          4.6395118764       -1.4656535183        1.0263507117
 O          4.6024596061        0.6059746138        2.3275145948
 C          5.5948448505        0.7334870413       -0.1212857344
 C          5.8519003745        2.0856836735       -0.0006160082
 C          6.6974382069        2.6905424141       -0.9166972385
 C          7.2671553231        1.9378607439       -1.9329963047
 C          7.0002004734        0.5813914352       -2.0405183431
 C          6.1544224777       -0.0295559443       -1.1280184024
 H          5.9260522282       -1.0826462285       -1.1683284056
 H          7.4465547361       -0.0014199276       -2.8301441676
 H          7.9255144933        2.4109211647       -2.6444440842
 H          6.9092868996        3.7444898450       -0.8356869355
 H          5.3928221649        2.6283453856        0.8090524335
 H          3.0116672200        0.2493383952       -0.6322116110
 H          2.3381820315        0.4515645544        2.9224588201
 H          0.2597909376       -0.4704106094        3.9060607037
 H         -1.4022537702       -1.5846399033        2.4611094454
 H         -1.8401742424       -2.7298676186        0.4348317432
 C         -0.7806719402       -2.6609456616       -1.4196029992
 C          0.0166580443       -3.9209134471       -1.2684604131
 C         -1.3629185297       -3.9720439662       -1.8511592003
 H         -1.4697675031       -4.1642499955       -2.9082190524
 H         -2.1570280413       -4.3890457618       -1.2493886925
 H          0.8593626840       -4.0818968643       -1.9233623486
 H          0.1609632641       -4.3003849678       -0.2679528901
 H         -0.4932242108       -1.9686651547       -2.2012483007
