  62
        -98.93175465
 C         -2.4991296249       -1.1025038339        0.5178771706
 C         -3.3617087928       -0.8063543631       -0.5631816210
 C         -4.5371271520        0.0425646219       -0.2629520651
 C         -4.7176103271        0.4922811440        0.9917739416
 C         -5.8047185128        1.3912161888        1.5188312986
 C         -5.6038139280        2.8624516680        1.1226723139
 C         -5.2084264259        3.0860466011       -0.3344010823
 H         -4.9992011820        4.1514756727       -0.4615580060
 H         -4.2816772107        2.5475362894       -0.5404185397
 C         -6.2656984651        2.6915505684       -1.3628801627
 H         -7.1822624230        3.2529954545       -1.1684084275
 H         -5.8922633143        2.9958854172       -2.3439886028
 C         -6.6115546800        1.2022299947       -1.4296487594
 H         -7.2750536515        0.9148845644       -0.6183922602
 H         -7.1684013729        1.0392789756       -2.3570897876
 C         -5.4045836814        0.2708086476       -1.4778177391
 H         -5.7450550440       -0.7253028747       -1.7855789310
 H         -4.7290104119        0.6006723310       -2.2751543965
 H         -4.8103560651        3.2757391207        1.7501752014
 H         -6.5243513670        3.4065822947        1.3409104988
 H         -6.7769098956        1.0323180375        1.1943217638
 H         -5.7697886448        1.3168481938        2.6080644064
 O         -3.8489548496        0.1921492165        2.0008176228
 C         -2.7390004381       -0.5989338184        1.7983370329
 O         -2.0500654811       -0.7920982973        2.8217112341
 H          1.1093896033       -1.7480729038        1.6472317757
 C          1.0805190333       -1.1550879373        0.7424709859
 C         -0.0717339207       -1.1480130932       -0.0294577308
 C         -0.0994682330       -0.3655650964       -1.1800036775
 C          1.0047898174        0.3832430232       -1.5434219112
 C          2.1521027475        0.3745987975       -0.7689226922
 C          2.1888890660       -0.3982430985        0.3833219751
 N          3.3449951931       -0.3958720075        1.1818785978
 S          4.8222621455       -0.7042801028        0.4443881491
 O          4.6588864271       -1.5330483750       -0.7272169676
 O          5.6651305361       -1.2315093195        1.4949096082
 C          5.4163846366        0.9071921025       -0.0233748030
 C          5.7171091046        1.1725389673       -1.3449674893
 C          6.1854731712        2.4320256996       -1.6856873322
 C          6.3450909071        3.3977590993       -0.7037842065
 C          6.0417594862        3.1140354131        0.6196683201
 C          5.5739663591        1.8568167118        0.9670134825
 H          5.3317172252        1.5950690209        1.9835757194
 H          6.1679827718        3.8675453365        1.3803791148
 H          6.7087152542        4.3773614386       -0.9712531616
 H          6.4229796253        2.6541254817       -2.7136795575
 H          5.5736975835        0.3917303713       -2.0749639778
 H          3.2520213651       -0.9263027949        2.0360855363
 H          3.0130709669        0.9598950237       -1.0475639607
 H          0.9715739784        0.9840056805       -2.4397139343
 H         -0.9939291942       -0.3578323948       -1.7842519017
 C         -1.2614896507       -1.9748403108        0.3848384769
 H         -1.0665377315       -2.3437030322        1.4046168170
 C         -1.4835924308       -3.1968785730       -0.4967974296
 C         -0.8034709576       -3.4190098003       -1.8107889768
 C         -0.4037643415       -4.2317966293       -0.6186274193
 H         -0.6768383456       -5.2755457890       -0.5814667961
 H          0.5508027059       -4.0093511399       -0.1638869219
 H         -1.3770760830       -3.8899062535       -2.5943599453
 H         -0.1135363596       -2.6709121935       -2.1675538466
 H         -2.5001351165       -3.5686475309       -0.4186388371
 O         -3.1843691793       -1.2153754195       -1.7390363041
