  62
        -98.94792696
 C          0.9331236619        1.0730273126        0.7050913363
 C          1.4515566522        0.8965428729       -0.6006920523
 C          2.1766469144       -0.3590644146       -0.8310868238
 C          2.2784431330       -1.2652573773        0.1575385464
 C          2.9576492860       -2.6055131734        0.0646553475
 C          4.4767266992       -2.5535709759        0.2784649313
 C          5.2773937524       -1.9478390672       -0.8748084490
 H          6.3289701158       -2.1746098646       -0.6882138830
 H          4.9985057710       -2.4402206972       -1.8070303600
 C          5.1201735261       -0.4284454362       -1.0268199229
 H          6.1024738818        0.0265252530       -1.1721446670
 H          4.7055876055       -0.0105929485       -0.1067034675
 C          4.2434671513        0.0034698232       -2.2025915110
 H          4.1703240805        1.0939071045       -2.1949843499
 H          4.7143582180       -0.2956898429       -3.1417496913
 C          2.8187888276       -0.5652103519       -2.1687221533
 H          2.2126874400       -0.0354967565       -2.9084071461
 H          2.8273840168       -1.6243027005       -2.4280353047
 H          4.6806618841       -1.9960893641        1.1953543288
 H          4.8190310406       -3.5799874300        0.4290776568
 H          2.7383210868       -3.0598122363       -0.9026198035
 H          2.5230801981       -3.2312681435        0.8472982226
 O          1.7383817263       -1.0704937849        1.3905714208
 C          1.0528044092        0.0961655567        1.6919129366
 O          0.5992700433        0.1397943541        2.8534772723
 O          1.3203623369        1.7421731489       -1.5236453312
 C          0.1406049353        2.3228262184        1.0420530575
 C         -1.0658249875        2.4130254893        0.1382440549
 C         -1.5072143757        3.5963517654       -0.4394360757
 C         -2.6152725164        3.5972039636       -1.2693933317
 C         -3.2939759073        2.4257027174       -1.5508416263
 C         -2.8664154293        1.2381028433       -0.9681156066
 C         -1.7773321207        1.2471055247       -0.1136371580
 H         -1.4521489310        0.3222190283        0.3405328787
 N         -3.5292859210        0.0246453018       -1.2085703673
 S         -2.6336061688       -1.3822007541       -1.3551077654
 O         -1.3526095559       -1.1496310863       -1.9796733547
 O         -3.5194606921       -2.2939403002       -2.0508765828
 C         -2.4170215732       -1.9601469864        0.3135736908
 C         -3.4941948281       -1.9409347892        1.1769645342
 C         -3.3216726587       -2.4129163657        2.4681267782
 C         -2.0855628647       -2.8961074387        2.8699626904
 C         -1.0163966354       -2.9155579485        1.9884406610
 C         -1.1827595925       -2.4453477989        0.6960935234
 H         -0.3733998522       -2.4243625649       -0.0183726748
 H         -0.0511364630       -3.2772433511        2.3048119791
 H         -1.9497061009       -3.2556411365        3.8776500806
 H         -4.1488938529       -2.3985997825        3.1593989648
 H         -4.4378128369       -1.5542387923        0.8299932368
 H         -4.2736642508        0.0696978654       -1.8894434600
 H         -4.1433029134        2.4253599966       -2.2169697515
 H         -2.9460130507        4.5223265817       -1.7167496046
 H         -0.9786103000        4.5159848738       -0.2489385156
 H         -0.2159172059        2.1885168626        2.0742764040
 C          1.0286952975        3.5484947915        0.9869817229
 C          0.7545326698        4.7228569084        1.8765443939
 C          1.9327620044        3.8374411876        2.1463277372
 H          2.9233149711        4.2173879703        1.9460235740
 H          1.8859202118        3.1635512514        2.9896158835
 H          0.9392490781        5.7149111447        1.4927506648
 H         -0.0898918078        4.6572371978        2.5458002156
 H          1.4150555485        3.7360316184       -0.0083155498
