  62
        -98.93215243
 C          2.0612619974        1.1564822601       -0.3195641926
 C          2.6029088168        0.4506891497        0.7829833449
 C          2.8886286155       -0.9808569740        0.5995940416
 C          2.6097951177       -1.5554840831       -0.5849603438
 C          2.7012657932       -2.9964898322       -1.0428767349
 C          3.4666863769       -4.0297653147       -0.2207495611
 C          4.9800189186       -3.8193312419       -0.1822802089
 H          5.4085149179       -4.5439189750        0.5133467830
 H          5.3840985977       -4.0306905325       -1.1754158606
 C          5.4389241306       -2.4181104872        0.2128045634
 H          6.5317535332       -2.4037218033        0.1840600817
 H          5.0871995844       -1.6956604345       -0.5265268291
 C          5.0046254397       -1.9558639841        1.6021568822
 H          5.5273577372       -1.0198425713        1.8157666164
 H          5.3153969364       -2.6903443186        2.3475822928
 C          3.4984632531       -1.6925472944        1.7733200834
 H          2.9567903903       -2.6114742860        1.9861378748
 H          3.3655709568       -1.0286219973        2.6326202397
 H          3.0608888532       -4.0815309239        0.7852031935
 H          3.2790037700       -5.0000708667       -0.6886005088
 H          1.6619967129       -3.3300619311       -1.1451406776
 H          3.1149386348       -2.9638977638       -2.0561135490
 O          2.1063520790       -0.8351485993       -1.6272998692
 C          1.7968690948        0.5158458206       -1.5294651999
 O          1.3328911281        0.9907983015       -2.5827335805
 H         -0.4824655677        1.0105734540       -0.4152215056
 C         -0.6420697860        1.7295146961        0.3744452261
 C          0.3594163166        2.6372312088        0.6900045614
 C          0.1275722843        3.5607291332        1.7018833994
 C         -1.0858799018        3.5806985073        2.3678962240
 C         -2.0753837154        2.6660567100        2.0595395326
 C         -1.8420017753        1.7176403315        1.0672417624
 N         -2.7976510030        0.7234418788        0.8057530034
 S         -2.6278774442       -0.3873754094       -0.4408326684
 O         -1.4504727744       -1.1826272956       -0.1971086799
 O         -2.7290636075        0.2646398224       -1.7284694671
 C         -4.0843748786       -1.3730342047       -0.1479181458
 C         -5.1971179308       -1.2139025588       -0.9512786795
 C         -6.3259091398       -1.9761869969       -0.6926788430
 C         -6.3233816260       -2.8781877335        0.3603507093
 C         -5.1980455574       -3.0285577248        1.1574980999
 C         -4.0664929633       -2.2703943182        0.9033240986
 H         -3.1655007040       -2.3587182477        1.4880619823
 H         -5.1978037103       -3.7332777647        1.9733174604
 H         -7.2025081447       -3.4703350120        0.5595127051
 H         -7.2003922419       -1.8639881500       -1.3130380980
 H         -5.1489817810       -0.5061122149       -1.7631261167
 H         -3.7539447099        1.0084986708        0.9575035973
 H         -3.0145933289        2.6698731886        2.5900188236
 H         -1.2588401139        4.3098030019        3.1447031794
 H          0.9091375466        4.2539950064        1.9756500377
 C          1.6731629721        2.6003889665       -0.0543398727
 H          2.4436174733        2.9930103961        0.6299776695
 C          1.6666105352        3.4841028462       -1.2912280737
 C          0.4104198692        3.8616291662       -2.0112021149
 C          1.1580553889        4.8940648208       -1.2251812077
 H          1.6982461993        5.6581881007       -1.7630613805
 H          0.7182733466        5.2285493270       -0.2984734278
 H          0.4413666706        3.8921503048       -3.0894183719
 H         -0.5253534166        3.4899222562       -1.6212518680
 H          2.5382978416        3.3099410799       -1.9133664574
 O          2.8313640775        1.0039365939        1.8939079053
