  62
        -98.94420048
 C         -1.6880096501       -1.3100098483        0.2590922484
 C         -1.2975172765       -0.2336538833       -0.5677525916
 C         -1.8755409951        1.0826414981       -0.2529813208
 C         -2.7204744095        1.1911401342        0.7865982523
 C         -3.4472055380        2.4207948383        1.2580359892
 C         -4.8303234181        2.5338328619        0.5936403373
 C         -4.8451048775        3.2708638892       -0.7447895913
 H         -5.8527862528        3.1766338943       -1.1558840713
 H         -4.6592755958        4.3326971643       -0.5706887268
 C         -3.8411911450        2.7605900304       -1.7810837350
 H         -3.8383658667        1.6691967562       -1.7814805019
 H         -4.1817057068        3.0855665732       -2.7659525197
 C         -2.4153154702        3.2831513903       -1.5496533001
 H         -2.0349835870        3.7222354959       -2.4743444239
 H         -2.4412442486        4.0866756463       -0.8141097719
 C         -1.3992086624        2.2184089112       -1.1167781369
 H         -0.9810788932        1.7351564464       -2.0058348234
 H         -0.5604103963        2.7010698893       -0.6011031433
 H         -5.5029767844        3.0578349736        1.2757158326
 H         -5.2216623993        1.5217862447        0.4620556668
 H         -3.5851734449        2.3018908559        2.3350339475
 H         -2.8486414912        3.3100511113        1.0833329949
 O         -3.0815466477        0.1236234224        1.5531824349
 C         -2.5608871499       -1.1371312759        1.3301705611
 O         -2.9464690675       -2.0089915000        2.1376177149
 H          0.4303817102       -1.1489016464        1.6232344607
 C          1.0334581364       -1.7231732833        0.9345468226
 C          0.4236625244       -2.5842923971        0.0310528915
 C          1.2308780150       -3.3175452149       -0.8302520637
 C          2.6066469614       -3.1660211608       -0.8041667111
 C          3.2039759896       -2.2663633236        0.0597113785
 C          2.4055147107       -1.5364608730        0.9321764323
 N          2.9561593222       -0.5857374405        1.8186112910
 S          2.5247080051        1.0160116175        1.5661853247
 O          3.2763280887        1.7640799043        2.5523209254
 O          1.0927690731        1.1585852917        1.6142257588
 C          3.1592908274        1.3884232376       -0.0596271146
 C          4.3916839290        2.0072517345       -0.1554359354
 C          4.9326755603        2.2383277651       -1.4093116811
 C          4.2392442371        1.8384023640       -2.5420439551
 C          3.0065542276        1.2152658440       -2.4275220872
 C          2.4555436670        0.9831829343       -1.1757958872
 H          1.4948371877        0.5029807190       -1.0684597223
 H          2.4613019848        0.9007963090       -3.3029256218
 H          4.6605527897        2.0136555994       -3.5194084607
 H          5.8905083076        2.7250138809       -1.4990498818
 H          4.8909687845        2.3025538402        0.7534191384
 H          3.9631244648       -0.6414298873        1.8956265173
 H          4.2744784260       -2.1260070033        0.0604929314
 H          3.2199302918       -3.7418912823       -1.4801614631
 H          0.7806020746       -4.0040995355       -1.5285089618
 C         -1.0833686516       -2.6840254889        0.0373887097
 H         -1.3880980832       -3.2956807298        0.8998103955
 C         -1.6444134021       -3.3059381284       -1.2260161698
 C         -1.8240345802       -4.7902095175       -1.3283699497
 C         -3.0199167889       -3.8984895285       -1.1879545765
 H         -3.6661245364       -3.7593024412       -2.0416266413
 H         -3.5388937152       -3.8785643583       -0.2403202595
 H         -1.6531382920       -5.2662350211       -2.2821960409
 H         -1.5391129971       -5.3891868053       -0.4766073207
 H         -1.3592040278       -2.7595022488       -2.1177478548
 O         -0.4962834076       -0.3666016836       -1.5315237203
