  62
        -98.93927875
 C          2.1738752301        0.7353949598        0.5240046699
 C          1.9125079296       -0.0334877703       -0.6332552200
 C          1.8323884792       -1.4953648702       -0.4529333897
 C          2.0410353392       -2.0093469801        0.7731389803
 C          2.0604019588       -3.4609536401        1.1697828405
 C          3.3495805885       -4.1798238405        0.7306372404
 C          3.8638513184       -3.8045481709       -0.6576754898
 H          3.9917680987       -2.7217618610       -0.7111768200
 H          4.8526342982       -4.2548034113       -0.7784386899
 C          2.9947924080       -4.2698279708       -1.8234645896
 H          3.4877251179       -3.9532989111       -2.7460065897
 H          2.9539079376       -5.3615410708       -1.8245009494
 C          1.5613928681       -3.7379179003       -1.8394149794
 H          1.1236140879       -4.0038354103       -2.8062579292
 H          0.9581259981       -4.2311449700       -1.0818795992
 C          1.4326356787       -2.2223507003       -1.7128518796
 H          1.9949087687       -1.7445908006       -2.5231725797
 H          0.3829849187       -1.9438468299       -1.8776166194
 H          3.1788986082       -5.2563012705        0.7797424805
 H          4.1322250287       -3.9282484607        1.4501436602
 H          1.9977506390       -3.4908284099        2.2598790705
 H          1.1773824086       -3.9568612698        0.7763149607
 O          2.3313502597       -1.2301255800        1.8554840601
 C          2.3607877402        0.1481411499        1.7720417399
 O          2.5703206706        0.7307422200        2.8577852598
 H         -0.2572755297        1.2226485007        0.9107493203
 C         -0.3097120095        2.0374079106        0.2022284602
 C          0.8510750206        2.7072548302       -0.1624238701
 C          0.7520705208        3.7630391901       -1.0597373503
 C         -0.4742931992        4.1075466004       -1.6015715301
 C         -1.6177942094        3.4018571808       -1.2766397698
 C         -1.5319133195        2.3564182309       -0.3637273996
 N         -2.6745725197        1.6243210414        0.0102174607
 S         -2.4960630302       -0.0330046487        0.2905250009
 O         -1.9853987100       -0.2297880186        1.6254206408
 O         -1.7529352506       -0.6539099491       -0.7821723392
 C         -4.2065651604       -0.5363051781        0.2276431313
 C         -4.7123370608       -1.0869287481       -0.9346382485
 C         -6.0533417209       -1.4348240676       -0.9836866882
 C         -6.8618179606       -1.2245575472        0.1231440719
 C         -6.3394256202       -0.6728246872        1.2836865617
 C         -4.9994362801       -0.3239407677        1.3396479414
 H         -4.5458988898        0.0995205923        2.2206143613
 H         -6.9699569200       -0.5136260369        2.1434327018
 H         -7.9051130407       -1.4946590369        0.0820120722
 H         -6.4608500712       -1.8672877176       -1.8831968181
 H         -4.0435105910       -1.2375377384       -1.7669676886
 H         -3.4618057198        1.8019358815       -0.5998599692
 H         -2.5677372794        3.6537737211       -1.7231105896
 H         -0.5364015390        4.9253616603       -2.3034708402
 H          1.6376751909        4.3068041097       -1.3457147405
 C          2.1595130506        2.2501927898        0.4384811897
 H          2.2125701709        2.6153777499        1.4754932996
 C          3.3725365806        2.7505256293       -0.3194642506
 C          3.9956720211        4.0683460691        0.0281140590
 C          4.6947905208        2.7918286190        0.3838436191
 H          5.5809435206        2.5148388386       -0.1671055410
 H          4.7107136309        2.4847966591        1.4197599591
 H          4.4075998612        4.6698080389       -0.7681811111
 H          3.5477018415        4.6378828894        0.8283438491
 H          3.3659032903        2.4406438692       -1.3583161706
 O          1.7564588396        0.4769529396       -1.7745347400
