  62
        -98.93366811
 C         -2.0986380006       -0.6700868965        0.7756567019
 C         -2.8725231668        0.4983053874        0.9791588777
 C         -4.2944499868        0.4521185546        0.5886352219
 C         -4.7822230073       -0.6907456265        0.0718128834
 C         -6.1743399799       -0.9720053587       -0.4281751507
 C         -6.4490017105       -0.3428504754       -1.8034278804
 C         -5.9572275823        1.0933327221       -1.9627241335
 H         -4.8824587337        1.1277947537       -1.7747868764
 H         -6.1132907189        1.3840074491       -3.0049853037
 C         -6.6597442678        2.1232024141       -1.0811897080
 H         -7.7305783078        2.1085905180       -1.2963160019
 H         -6.2776635286        3.1072251581       -1.3650112756
 C         -6.4647684038        1.9572213844        0.4275037067
 H         -7.0927702231        1.1619896098        0.8201182192
 H         -6.8031472868        2.8825604903        0.9029816646
 C         -5.0177745647        1.7484047351        0.8633319544
 H         -4.3941779906        2.5399426043        0.4319255270
 H         -4.9551721958        1.8952291871        1.9485916352
 H         -7.5226719246       -0.3858648395       -1.9939567125
 H         -5.9471303196       -0.9516390168       -2.5593414595
 H         -6.9069656307       -0.6419286013        0.3023181565
 H         -6.2606927422       -2.0570388529       -0.5190264018
 O         -4.0023942533       -1.7929950003       -0.1064567336
 C         -2.6566025506       -1.8233921730        0.2232188904
 O         -2.1056312986       -2.9113021591       -0.0230828609
 O         -2.3934478699        1.5543815689        1.4766875074
 C         -0.6421001930       -0.6044211525        1.1939292929
 C          0.2459808371       -0.1705343616        0.0549208057
 C          0.1187600510       -0.7225430169       -1.2165203019
 C          0.9472135407       -0.3146683285       -2.2458022886
 C          1.9335302543        0.6308267203       -2.0226907434
 C          2.0743485168        1.1816798753       -0.7554298682
 C          1.2241174794        0.7895459810        0.2698242047
 H          1.3405111372        1.2403004492        1.2435104306
 N          3.0826461797        2.1287506196       -0.4785286759
 S          4.2790291204        1.6551077679        0.5959549089
 O          3.6839486971        1.3168752563        1.8617425858
 O          5.2447133517        2.7298388655        0.5957632081
 C          4.9882070303        0.2038153014       -0.1625910266
 C          4.3622700792       -1.0143271424        0.0122905526
 C          4.8687381421       -2.1269313122       -0.6407337575
 C          5.9847576258       -2.0024932931       -1.4540508591
 C          6.6029328694       -0.7719889850       -1.6186624108
 C          6.0983372480        0.3449732561       -0.9724061457
 H          6.5488320594        1.3197890167       -1.0680312755
 H          7.4725233928       -0.6795927482       -2.2492631915
 H          6.3751317197       -2.8709444077       -1.9607140838
 H          4.3865892618       -3.0827581109       -0.5114433312
 H          3.5001747571       -1.0769412839        0.6556406193
 H          3.5147885733        2.5127026473       -1.3079298521
 H          2.5859665549        0.9432003566       -2.8242251023
 H          0.8321151935       -0.7467013894       -3.2281726495
 H         -0.6311918148       -1.4805048446       -1.3848590637
 H         -0.6041638956        0.1919747090        1.9546566566
 C         -0.1473357034       -1.8863973298        1.8524973456
 C          0.9074859280       -2.7602041756        1.2491716438
 C          1.2257170794       -1.9312751771        2.4556179125
 H          1.3549858347       -2.4283498502        3.4053566976
 H          1.8539248537       -1.0597460098        2.3337595719
 H          0.7984403547       -3.8272965774        1.3673179920
 H          1.3242742765       -2.4693477951        0.2974739724
 H         -0.9355136167       -2.3920502454        2.4003289351
