  62
        -98.93997251
 C          1.1283905181        1.3040497516       -0.6926232697
 C          2.4355236452        1.4062232428       -0.1573063169
 C          3.3408759394        0.2554871955       -0.3341518752
 C          2.8785706600       -0.8329171573       -0.9764751540
 C          3.5844026564       -2.1370722187       -1.2414289553
 C          3.6788975571       -3.0242551126        0.0085130867
 C          4.1332068205       -2.3007627434        1.2729791085
 H          4.0860878604       -3.0166678724        2.0981642592
 H          3.4229056019       -1.5034480159        1.5010745877
 C          5.5494741197       -1.7310977769        1.2258048671
 H          6.2520196160       -2.5369027505        1.0022555883
 H          5.7794288631       -1.3588803371        2.2273878569
 C          5.7812518758       -0.5886116599        0.2332802246
 H          5.9111904712       -0.9630218805       -0.7786643641
 H          6.7231764976       -0.1054853652        0.5086267541
 C          4.7099454258        0.4966189031        0.2551260082
 H          5.0980667291        1.3818929957       -0.2629082045
 H          4.5450501059        0.8198410046        1.2894395473
 H          4.3586687213       -3.8510712573       -0.2060181365
 H          2.6877978145       -3.4417359869        0.2054055014
 H          4.5705229506       -1.9536958764       -1.6578767595
 H          2.9957486981       -2.6630523102       -1.9964707691
 O          1.6125509035       -0.8916292127       -1.4745056181
 C          0.7072268953        0.1470721539       -1.3481829970
 O         -0.3982985124       -0.0935594810       -1.8715203204
 O          2.8449297956        2.4342022966        0.4500155960
 C          0.2087330805        2.4934891098       -0.4718518198
 C         -0.6348301258        2.2729057394        0.7613623089
 C         -0.6035000196        3.1679376260        1.8241466819
 C         -1.3539445789        2.9327714865        2.9628201030
 C         -2.1280532198        1.7917243355        3.0718273241
 C         -2.1645953131        0.8905999740        2.0134960756
 C         -1.4433184029        1.1494056221        0.8584147492
 H         -1.4803695697        0.4462996873        0.0424770011
 N         -2.9312034080       -0.2814172997        2.0826099771
 S         -2.3499533988       -1.6846839549        1.3719966208
 O         -3.0523012855       -2.7476589523        2.0662516238
 O         -0.9074713975       -1.7562958067        1.4312353472
 C         -2.9391533128       -1.6376006426       -0.3051702342
 C         -4.1109640134       -0.9666185667       -0.5920599333
 C         -4.5894996047       -0.9853127407       -1.8918452667
 C         -3.8968490131       -1.6760902234       -2.8742677829
 C         -2.7253899044       -2.3488042888       -2.5675182374
 C         -2.2391577689       -2.3310825864       -1.2703156731
 H         -1.3206245739       -2.8252966950       -0.9957953133
 H         -2.1805461587       -2.8779470418       -3.3328367265
 H         -4.2688636517       -1.6866169916       -3.8868917566
 H         -5.4981726713       -0.4582338159       -2.1353904709
 H         -4.6199036068       -0.4336109852        0.1938822938
 H         -3.3634850249       -0.4638402857        2.9766572389
 H         -2.6937955182        1.5932700921        3.9694214934
 H         -1.3214852104        3.6351151892        3.7819096808
 H          0.0298226182        4.0406003858        1.7621599945
 H          0.8763492330        3.3431198782       -0.2727376091
 C         -0.6619040115        2.8334700118       -1.6649221914
 C         -1.1978946793        4.2262265735       -1.7987068414
 C         -0.1267729235        3.7424094488       -2.7286883467
 H         -0.3847405200        3.5372198305       -3.7565875489
 H          0.8742940576        4.1276541677       -2.5991650104
 H         -2.1956253762        4.3572918259       -2.1877501204
 H         -0.9228243552        4.9438516839       -1.0407147908
 H         -1.2944516023        2.0148325378       -1.9816790072
