  62
        -98.94264959
 C          1.2834120084        1.6470107611        0.3314201006
 C          1.9064220490        1.1533583615       -0.8409419193
 C          2.9650181896        0.1515866022       -0.6309345891
 C          3.1963245897       -0.3224471077        0.6062385710
 C          4.2137432103       -1.3718477670        0.9478979012
 C          3.6303958913       -2.7887208674        0.8625043010
 C          2.8716456817       -3.0704819578       -0.4337462292
 H          2.5353439124       -4.1087264981       -0.3968881093
 H          1.9790392413       -2.4415480984       -0.4676260394
 C          3.6920129719       -2.8521855372       -1.7121128490
 H          3.5240926526       -3.6947018273       -2.3862987991
 H          4.7563067218       -2.8355059165       -1.4744449588
 C          3.3263799612       -1.5835785275       -2.4834012890
 H          2.2455673912       -1.5494927282       -2.6435829393
 H          3.7996394715       -1.6341375371       -3.4678296989
 C          3.7631239002       -0.2640964072       -1.8356456189
 H          4.8258791202       -0.3137975165       -1.5880571487
 H          3.6210366698        0.5286431327       -2.5762361189
 H          2.9436312212       -2.9303487579        1.6989579008
 H          4.4489058217       -3.5029331168        0.9691093811
 H          4.5585233799       -1.1923405968        1.9676811312
 H          5.0600674404       -1.2771355464        0.2695214814
 O          2.4984433291        0.0921243018        1.6936065908
 C          1.5638296485        1.1077970912        1.5908510906
 O          1.0505520480        1.4432571009        2.6758222005
 O          1.6148718490        1.5131403214       -2.0130042193
 C          0.2649833877        2.7732184004        0.3256915904
 C         -1.1450328319        2.2864631795        0.0850519701
 C         -2.2235909225        2.9438612387        0.6670937498
 C         -3.5187447922        2.5044941679        0.4581801895
 C         -3.7656946713        1.3879171477       -0.3214331006
 C         -2.6945484407        0.7182385085       -0.8964980703
 C         -1.3980590410        1.1760582693       -0.7050735100
 H         -0.5757241506        0.6551427499       -1.1739638599
 N         -2.9374847997       -0.4637303817       -1.6345399204
 S         -3.4071203391       -1.7786189420       -0.7055004106
 O         -3.4114104281       -2.9130586520       -1.5997534206
 O         -4.6580097694       -1.4613914929       -0.0665910409
 C         -2.1270588692       -1.9782197312        0.5233774397
 C         -1.2117348785       -3.0007543406        0.3750308799
 C         -0.1932650786       -3.1301307899        1.3056261101
 C         -0.0884085995       -2.2185874699        2.3447883702
 C         -1.0106277002       -1.1924377405        2.4774828400
 C         -2.0481970400       -1.0751975712        1.5662514297
 H         -2.7918925106       -0.3007162617        1.6582148996
 H         -0.9113626708       -0.4729055805        3.2746931700
 H          0.7162508004       -2.2996667794        3.0590997203
 H          0.5161139419       -3.9369314695        1.2153786702
 H         -1.3210888479       -3.6790332206       -0.4561609302
 H         -2.1518970794       -0.7346276411       -2.2105031503
 H         -4.7631466810        1.0072019471       -0.4673685608
 H         -4.3444341926        3.0280945373        0.9151350793
 H         -2.0414909332        3.7999487188        1.2986452299
 H          0.2925165672        3.2038477404        1.3365457604
 C          0.6012665572        3.8710648907       -0.6679654495
 C          0.2247184862        5.2893869804       -0.3698725895
 C          1.6632966264        4.8711142914       -0.3278275692
 H          2.3270108364        5.2031522518       -1.1117919691
 H          2.1400740063        4.7827711016        0.6378607909
 H         -0.1064405541        5.9140047802       -1.1851833296
 H         -0.2637767542        5.4981976600        0.5694851304
 H          0.5452688576        3.5414511707       -1.6974531795
