  62
        -98.93983675
 C          1.8427118310        1.0076383006        0.5222078615
 C          2.4133610081       -0.1079735476        1.1878900061
 C          3.8683933571       -0.2672790291        1.0728605496
 C          4.5732066324        0.6417242249        0.3753537783
 C          6.0519320156        0.5770863095        0.1277540001
 C          6.3637495233       -0.1732915815       -1.1746575224
 C          5.6435975081       -1.5157961343       -1.3018631474
 H          4.5681631879       -1.3389081056       -1.3783820999
 H          5.9621745679       -1.9680761335       -2.2435590797
 C          5.9137411120       -2.4927494937       -0.1489593845
 H          6.1101343856       -3.4824073608       -0.5668228980
 H          6.8087880346       -2.1872385614        0.3941936689
 C          4.7532189171       -2.6483177917        0.8358496557
 H          4.9620341819       -3.5109695475        1.4744601201
 H          3.8321869749       -2.8639328914        0.2877314457
 C          4.4948541668       -1.4493284414        1.7570268670
 H          3.7795716668       -1.7663300031        2.5218659563
 H          5.4233675708       -1.1601625533        2.2538652528
 H          7.4423490116       -0.3302076135       -1.2328761765
 H          6.0653192628        0.4557139914       -2.0163933662
 H          6.5342810273        0.0829964217        0.9689182662
 H          6.4326629579        1.5967476959        0.0492626900
 O          3.9992436132        1.7096320787       -0.2296765451
 C          2.6241593622        1.9165691940       -0.1933304451
 O          2.2583849872        2.9258632887       -0.8212941204
 O          1.7323116485       -0.9312280271        1.8580768659
 C          0.3349767696        1.1626120629        0.6270307136
 C         -0.3425590549        0.4726635614       -0.5295294712
 C         -0.0056817907        0.7830660849       -1.8446753824
 C         -0.6142756630        0.1254467058       -2.8969913765
 C         -1.5710592641       -0.8467440066       -2.6615779357
 C         -1.9104111279       -1.1683888257       -1.3527684780
 C         -1.3000548907       -0.5037472354       -0.2959740355
 H         -1.5531976997       -0.7837956367        0.7155600047
 N         -2.8610672370       -2.1625426617       -1.0919553771
 S         -3.8737388394       -2.0704661646        0.2274274818
 O         -3.1716222903       -2.4224914789        1.4355567719
 O         -4.9907470021       -2.9216207121       -0.1231492508
 C         -4.4193339490       -0.3732733301        0.3121129693
 C         -4.4182485373        0.2736956926        1.5308787285
 C         -4.8771557419        1.5802409285        1.5992622146
 C         -5.3206829756        2.2167921632        0.4507358966
 C         -5.3145069589        1.5539186052       -0.7668924959
 C         -4.8651833075        0.2454476020       -0.8394624042
 H         -4.8597373571       -0.2951575175       -1.7716303237
 H         -5.6577773018        2.0523005485       -1.6589864803
 H         -5.6698348004        3.2354818908        0.5052733379
 H         -4.8796939176        2.0965592551        2.5457968111
 H         -4.0514224955       -0.2535736003        2.3973572119
 H         -3.3163315233       -2.5533826272       -1.9028302621
 H         -2.0416972591       -1.3640888300       -3.4836452661
 H         -0.3431701729        0.3735404882       -3.9120600148
 H          0.7395095556        1.5422430871       -2.0276540933
 H          0.0618521793        0.6105721598        1.5406898804
 C         -0.1117003350        2.6060728940        0.8146529773
 C         -0.9490653378        3.3523351102       -0.1766825310
 C         -1.5509956249        2.9006533058        1.1173615144
 H         -1.7817153982        3.6380664261        1.8707671793
 H         -2.2400959563        2.0698796780        1.0836787875
 H         -0.7362437778        4.4011119761       -0.3151429824
 H         -1.2471932710        2.8457945268       -1.0805040178
 H          0.6277476219        3.1913090513        1.3511798129
