  62
        -98.93905755
 C          2.4341003503        0.8556813198        0.8149851302
 C          3.2858665601        0.5688185995       -0.2797178599
 C          4.0685303500       -0.6723370806       -0.1726825698
 C          3.9137763501       -1.4626224704        0.9047906204
 C          4.6083037099       -2.7764346304        1.1139682006
 C          3.7791351197       -3.9412993404        0.5552906810
 C          3.2811614196       -3.7166217207       -0.8725159690
 H          2.5651905996       -2.8912299306       -0.8761660191
 H          2.7366324794       -4.6145906907       -1.1723437488
 C          4.3904006294       -3.4271641810       -1.8933345492
 H          4.2039435692       -4.0203631412       -2.7910137291
 H          5.3547885495       -3.7411757210       -1.4923048693
 C          4.4778622595       -1.9654917711       -2.3361499996
 H          3.4909378795       -1.6173923911       -2.6519125095
 H          5.1368235794       -1.9128502614       -3.2069602897
 C          5.0227560098       -0.9837286410       -1.2913061298
 H          5.2101909998       -0.0324063611       -1.7977905301
 H          5.9703667298       -1.3554372610       -0.8960286499
 H          2.9106794198       -4.0894274802        1.2011766811
 H          4.3881579296       -4.8463378105        0.5916982711
 H          5.5828127099       -2.7460280806        0.6305978904
 H          4.7489627501       -2.9236112402        2.1861137006
 O          3.0558137202       -1.1732408101        1.9167133905
 C          2.2931585804       -0.0190798600        1.8933388104
 O          1.5341245005        0.1138035103        2.8761717704
 H         -0.4783127997        0.4834785701        0.9862490806
 C         -0.5208760998        1.0589030900        0.0693316105
 C          0.4845425403        1.9850023198       -0.1852508398
 C          0.4270545802        2.7233074195       -1.3587023500
 C         -0.6093137599        2.5261044795       -2.2562154098
 C         -1.6044023300        1.6005626896       -2.0031836894
 C         -1.5592680199        0.8603767699       -0.8276857293
 N         -2.5651160100       -0.0905444900       -0.5612262789
 S         -4.1588772600        0.4292287002       -0.7915472688
 O         -4.4757835002        0.3133889199       -2.1928854487
 O         -4.3399705697        1.7410047403       -0.2108544691
 C         -5.0665666900       -0.7911977395        0.1358577116
 C         -5.3735801202       -1.9966475296       -0.4659464281
 C         -6.0624032902       -2.9522685694        0.2639566122
 C         -6.4294179200       -2.6886853191        1.5753395422
 C         -6.1148786698       -1.4736481190        2.1652403119
 C         -5.4250377698       -0.5139317592        1.4413971716
 H         -5.1680553096        0.4476523808        1.8564794113
 H         -6.4038585396       -1.2701163687        3.1838099419
 H         -6.9670739900       -3.4333112089        2.1408216224
 H         -6.3115054304       -3.8971658795       -0.1913187776
 H         -5.0768296804       -2.1531079999       -1.4898175182
 H         -2.4555707099       -0.4996124298        0.3573205511
 H         -2.4202313201        1.4477138096       -2.6912638793
 H         -0.6428402800        3.1039350693       -3.1677161799
 H          1.1967629903        3.4448508594       -1.5762651902
 C          1.5865876105        2.1181848999        0.8388086300
 H          1.1136210306        2.1405901801        1.8308683901
 C          2.4320289806        3.3628854597        0.6798706496
 C          1.8741370608        4.6885092799        1.0992864094
 C          2.9606659608        4.0436376699        1.9050079094
 H          3.9520159309        4.4697189098        1.8698228692
 H          2.7029699809        3.6178272102        2.8640627295
 H          0.8758632008        4.7013013701        1.5105641196
 H          2.1185404408        5.5607311397        0.5124741292
 H          3.0782371404        3.3324625295       -0.1882354105
 O          3.4014757301        1.3057036192       -1.2926973701
