  62
        -98.93871516
 C         -2.7338399598       -0.7365034908       -0.1465970983
 C         -2.3515201504        0.2015566583       -1.1393577393
 C         -2.6584092107        1.6118380785       -0.8358263706
 C         -3.2924714604        1.9280896094        0.3059691493
 C         -3.6199025806        3.3220862098        0.7556166381
 C         -2.4990787805        3.9037980609        1.6275306272
 C         -1.1030158207        3.7625289407        1.0199957869
 H         -0.8249066104        2.7062267008        0.9807653778
 H         -0.4021149106        4.2508905016        1.7007179962
 C         -0.9564710613        4.3666599694       -0.3831864937
 H         -0.0222003415        4.9301949697       -0.4250308146
 H         -1.7699465316        5.0684183890       -0.5740314341
 C         -0.8996410414        3.3327159184       -1.5097573528
 H         -0.1592254011        2.5664717488       -1.2634760423
 H         -0.5584255018        3.8367674376       -2.4186947334
 C         -2.2270391413        2.6391307177       -1.8441604317
 H         -2.0896186514        2.0960835368       -2.7841660112
 H         -3.0086352515        3.3884923573       -1.9906583422
 H         -2.5071580901        3.3880456518        2.5905034677
 H         -2.7138030008        4.9595198210        1.8041613963
 H         -4.5409152804        3.2852112901        1.3401433884
 H         -3.7796885011        3.9511335389       -0.1178627924
 O         -3.6805909999        0.9967496402        1.2155379703
 C         -3.3813930495       -0.3405443599        1.0267096615
 O         -3.7566681190       -1.0829544791        1.9576846623
 O         -1.7986552507       -0.0922750825       -2.2299164392
 C         -2.4138367494       -2.2217872208       -0.2092740070
 C         -1.1551130491       -2.5090476597        0.5717746729
 C         -1.0582568385       -3.6276025489        1.3913994439
 C          0.1086235418       -3.8880087779        2.0878740038
 C          1.1972272415       -3.0422438577        1.9792850426
 C          1.1037562709       -1.9088570285        1.1778074316
 C         -0.0673385394       -1.6532851795        0.4801461417
 H         -0.1263018198       -0.7763069901       -0.1464403691
 N          2.1715502907       -1.0024733783        1.0916995404
 S          2.3594175900       -0.0988155796       -0.3233975005
 O          1.4647011297        1.0278634802       -0.2733599513
 O          2.2677533498       -0.9671281307       -1.4747588797
 C          4.0401326399        0.4593087911       -0.1158302516
 C          4.2790596398        1.6102552318        0.6105709772
 C          5.5882560197        2.0256585024        0.7960911864
 C          6.6307470498        1.2871151721        0.2562513068
 C          6.3755188098        0.1354659914       -0.4731008321
 C          5.0686357799       -0.2856903392       -0.6615522612
 H          4.8212648900       -1.1671447698       -1.2311540003
 H          7.1874885799       -0.4340582788       -0.8956062818
 H          7.6484439497        1.6133118126        0.4013739661
 H          5.7901200097        2.9226187830        1.3589924555
 H          3.4358980598        2.1554079820        1.0021174170
 H          3.0473043109       -1.3833984677        1.4222842205
 H          2.1081702517       -3.2464572770        2.5208196125
 H          0.1728606122       -4.7607477073        2.7197885846
 H         -1.9096670383       -4.2847855990        1.4907172648
 H         -3.2436273091       -2.7278631905        0.3119962037
 C         -2.3571300197       -2.7872040221       -1.6204422265
 C         -1.0769471999       -3.0382615825       -2.3527432167
 C         -1.8908309194       -4.1936606622       -1.8574617053
 H         -2.4221756595       -4.7959678531       -2.5787100346
 H         -1.5103629390       -4.7456287313       -1.0116027549
 H         -1.0586213103       -2.8231694035       -3.4103359669
 H         -0.1474757398       -2.7994446317       -1.8573824972
 H         -3.1915882200       -2.4430033229       -2.2228534665
