  62
        -98.94464091
 C         -0.7913621473       -1.3662201362        0.2928751390
 C         -1.1506920586       -0.4505601738       -0.7264239676
 C         -2.2633556077        0.4549706822       -0.4002286828
 C         -2.7763807223        0.4758550934        0.8417050189
 C         -3.8952921862        1.3557242336        1.3284902487
 C         -5.2941803042        0.7991566526        1.0283411343
 C         -5.7195972929        0.8634604479       -0.4393180385
 H         -6.7892454710        0.6469089281       -0.4722775061
 H         -5.5824584145        1.8785051050       -0.8132975095
 C         -4.9888405435       -0.1279268608       -1.3560889789
 H         -4.5147881533       -0.9038671271       -0.7506634273
 H         -5.7131515736       -0.6267555980       -2.0039989568
 C         -3.9325306419        0.5050255055       -2.2627421931
 H         -4.4152488801        1.1830071079       -2.9704059303
 H         -3.4507231450       -0.2911747025       -2.8362678108
 C         -2.8399374890        1.2781737133       -1.5121663446
 H         -2.0330344221        1.5040174714       -2.2137942386
 H         -3.2460781845        2.2140137943       -1.1294802056
 H         -5.3404785904       -0.2356820658        1.3751130094
 H         -6.0094425252        1.3788015739        1.6163635922
 H         -3.7825826382        1.4320086434        2.4117191690
 H         -3.8009035006        2.3514207594        0.8955194197
 O         -2.3043744340       -0.3220839961        1.8350632383
 C         -1.3544420466       -1.2925592964        1.5710031453
 O         -1.0881956265       -2.0232342308        2.5461294796
 H          1.6081087780       -0.4016268967       -0.9517369094
 C          2.1756878044       -0.9423281069       -0.2094826108
 C          1.6195479338       -2.0453133508        0.4240070798
 C          2.3787054736       -2.7380917037        1.3600376742
 C          3.6689083864       -2.3382002238        1.6561954625
 C          4.2157646974       -1.2288344772        1.0387120516
 C          3.4617583343       -0.5249827638        0.1047596132
 N          3.9955437195        0.6137069656       -0.5105240958
 S          3.0300560615        1.8563683737       -1.0539622351
 O          2.4792305390        1.5386080007       -2.3458065931
 O          3.9056218698        3.0117580823       -1.0249513216
 C          1.7259975091        2.1000330617        0.1418100108
 C          0.5313503909        2.6136202701       -0.3183515017
 C         -0.4744914821        2.8983136635        0.5903852288
 C         -0.2774040839        2.6490390733        1.9388838767
 C          0.9263581049        2.1291506445        2.3861529903
 C          1.9447572906        1.8642512590        1.4843533316
 H          2.8905742556        1.4722277697        1.8206057170
 H          1.0766492155        1.9305799139        3.4352388211
 H         -1.0657602567        2.8599293126        2.6441162627
 H         -1.4052415042        3.3143821007        0.2419791345
 H          0.4084389465        2.7685559888       -1.3783200006
 H          4.8687056275        0.9470649232       -0.1298503063
 H          5.2174144107       -0.9038368349        1.2750358586
 H          4.2497648593       -2.8863878916        2.3819150970
 H          1.9443530102       -3.5872578849        1.8659794800
 C          0.2138861443       -2.4914329394        0.1046055847
 H         -0.0622979797       -3.2582904797        0.8421956261
 C          0.1666986507       -3.1218227878       -1.2738425583
 C          0.6058744821       -4.5443225944       -1.4385278725
 C         -0.8452711892       -4.1885251564       -1.5586308252
 H         -1.3075997249       -4.2118191612       -2.5340182332
 H         -1.5085179069       -4.4750609250       -0.7550448851
 H          0.9237315096       -5.0777627867       -0.5555003324
 H          1.1450341443       -4.8148531893       -2.3333811246
 H          0.3961479540       -2.4276976827       -2.0717457176
 O         -0.6025705958       -0.3782214370       -1.8574477050
