  62
        -98.92976001
 C         -2.2880129200       -0.5002724194        0.8606712989
 C         -3.4312063802       -1.0139821790        0.2021843689
 C         -4.6472312001       -0.1742061489        0.2423593293
 C         -4.6125600999        1.0234240209        0.8531275997
 C         -5.6881513597        2.0670973509        1.0738747501
 C         -7.0142096998        1.9945834313        0.3212584503
 C         -6.9107206100        2.2514592118       -1.1820345797
 H         -7.8892912200        2.0638390721       -1.6291803296
 H         -6.6706272899        3.3063296918       -1.3372824093
 C         -5.8597628501        1.4275456719       -1.9217537501
 H         -5.8821427002        1.7245622223       -2.9738331699
 H         -4.8661630201        1.6721252217       -1.5402050901
 C         -6.0559254603       -0.0857399881       -1.8622726005
 H         -5.3357573104       -0.5387405779       -2.5488295508
 H         -7.0578436604       -0.3408407378       -2.2128882205
 C         -5.8428955202       -0.7262831385       -0.4803869008
 H         -6.7349769401       -0.6442099087        0.1355040493
 H         -5.6436072103       -1.7913191185       -0.6307879612
 H         -7.5044284799        1.0450199613        0.5144691400
 H         -7.6547978597        2.7728359912        0.7450125306
 H         -5.8983934196        2.0506351406        2.1490705502
 H         -5.2121911796        3.0316705709        0.8700110304
 O         -3.4784501197        1.4847187205        1.4616732997
 C         -2.3095982498        0.7484711104        1.4833446293
 O         -1.3684377697        1.3041008901        2.0878901294
 O         -3.4654000503       -2.1200686488       -0.3933062615
 C         -0.9654250201       -1.2432066996        0.9384215485
 C         -0.0859289702       -0.9386908593       -0.2479854315
 C         -0.5879354103       -0.9475855388       -1.5452198514
 C          0.2415065496       -0.6723910185       -2.6168837014
 C          1.5815271296       -0.3927246787       -2.4179763115
 C          2.0977605698       -0.3953738792       -1.1264100916
 C          1.2591624298       -0.6591293495       -0.0521655816
 H          1.6623479900       -0.6294209199        0.9487527084
 N          3.4701109998       -0.1814436594       -0.9180551816
 S          4.0394566400        0.5109882600        0.5089528985
 O          3.9004907701       -0.4455200003        1.5778606782
 O          3.4345078202        1.8077926300        0.7176919990
 C          5.7622695700        0.6868499400        0.0860866984
 C          6.5538311199       -0.4464775801        0.0863501479
 C          7.8892966599       -0.3308665301       -0.2641631422
 C          8.4086396900        0.9090027999       -0.6067845518
 C          7.6027742201        2.0373778600       -0.6001872314
 C          6.2651717101        1.9284122300       -0.2523424612
 H          5.6023232002        2.7784907901       -0.2266759409
 H          8.0100711102        3.0000949300       -0.8638784111
 H          9.4488490299        0.9967406399       -0.8779243319
 H          8.5194921998       -1.2055165102       -0.2682310426
 H          6.1085600198       -1.3861185802        0.3686174477
 H          3.9292584698        0.2200286708       -1.7243668216
 H          2.2263659795       -0.1790684185       -3.2567465715
 H         -0.1603905206       -0.6753912281       -3.6189491214
 H         -1.6296340004       -1.1803601286       -1.7040099714
 H         -0.4583003600       -0.8370788599        1.8295787686
 C         -1.1374166502       -2.7409986596        1.1614848280
 C         -0.8112381505       -3.7710301593        0.1266177976
 C          0.0701573697       -3.6156247498        1.3268905476
 H          0.0518735797       -4.3802974001        2.0887828973
 H          1.0381373197       -3.1572064799        1.1859258776
 H         -1.4563941806       -4.6335074292        0.0610442574
 H         -0.4391561005       -3.4326005090       -0.8273692923
 H         -1.9843270802       -2.9568893797        1.8048416980
