  62
        -98.93657583
 C         -2.4701097915       -1.0220299173       -0.1663019719
 C         -3.6182417275       -0.8337644316        0.6382742413
 C         -4.6685814423        0.0379515977        0.0871952530
 C         -4.4902245305        0.6005460323       -1.1205446606
 C         -5.4368607853        1.4853808343       -1.8927821154
 C         -6.1835719717        2.5769025831       -1.1141470264
 C         -5.4013634191        3.1887960116        0.0571332906
 H         -4.3562404152        2.8775014761        0.0127324438
 H         -5.4211374464        4.2765088616       -0.0325899695
 C         -5.9861530691        2.8199943095        1.4226683507
 H         -5.6410259352        3.5479280836        2.1609061193
 H         -7.0742763172        2.8985867674        1.3706616665
 C         -5.6097342920        1.4338730537        1.9444284820
 H         -4.5509790005        1.4157020952        2.2169295057
 H         -6.1780239179        1.2530511104        2.8600371469
 C         -5.8598754395        0.2695850860        0.9718911246
 H         -6.7669995917        0.4266846663        0.3935805023
 H         -5.9775867917       -0.6423686041        1.5636127728
 H         -6.4351788586        3.3592260373       -1.8322532912
 H         -7.1265912482        2.1792214191       -0.7417868887
 H         -4.8227153048        1.9458899323       -2.6703608340
 H         -6.1656594035        0.8437792990       -2.3967242639
 O         -3.3634231939        0.3952026197       -1.8600285807
 C         -2.3282840835       -0.4083236507       -1.4094559015
 O         -1.3657313303       -0.4932386703       -2.1952940738
 O         -3.7642153661       -1.3768243403        1.7661161372
 C         -1.3520830812       -1.9101338856        0.3502101999
 C         -0.0969631013       -1.0906401380        0.5195306715
 C         -0.1200309776       -0.0158786270        1.4056749725
 C          0.9980396316        0.7730592060        1.5904074538
 C          2.1656209288        0.5114724379        0.8936337988
 C          2.2028525908       -0.5604876598        0.0139608153
 C          1.0776524871       -1.3578136431       -0.1636772638
 H          1.1231766667       -2.1843869130       -0.8552888998
 N          3.3770600643       -0.8246313396       -0.7069595663
 S          4.8542659348       -0.8065517471        0.0822250551
 O          5.7213333905       -1.6376179503       -0.7240161137
 O          4.7188019930       -1.1806137156        1.4708361470
 C          5.3909877946        0.8864034260       -0.0457913741
 C          5.7701590446        1.5763593379        1.0888793460
 C          6.1957791333        2.8897542329        0.9640177629
 C          6.2355251572        3.4861264203       -0.2868937729
 C          5.8540102781        2.7785001457       -1.4171918321
 C          5.4283209805        1.4651691735       -1.2992065086
 H          5.1249631778        0.8822178957       -2.1528659451
 H          5.8856543407        3.2457593884       -2.3883533013
 H          6.5659596534        4.5084597694       -0.3819464475
 H          6.4929025797        3.4416142639        1.8413370196
 H          5.7174144504        1.0739257612        2.0417363435
 H          3.3051841179       -1.6029718569       -1.3452625418
 H          3.0408987147        1.1252545885        1.0296368079
 H          0.9626511719        1.6026110079        2.2803413808
 H         -1.0331145066        0.1906683724        1.9474619573
 H         -1.6791732031       -2.2382530559        1.3476559918
 C         -1.1836191986       -3.1296381908       -0.5302179874
 C         -0.5353255987       -4.3641249607        0.0196906786
 C         -2.0093512476       -4.3477705065       -0.2499054249
 H         -2.3877857184       -4.9171265580       -1.0855623561
 H         -2.6844056075       -4.3078995843        0.5923203853
 H          0.0981549706       -4.9496465855       -0.6297414526
 H         -0.2061522367       -4.3386937108        1.0476543474
 H         -1.0073133446       -2.8772695554       -1.5698577842
