  62
        -98.94122692
 C         -1.6815410495       -0.2425918703        0.2326385895
 C         -2.8225549196       -0.9899733298       -0.1490128311
 C         -3.9489973096       -0.2091562890       -0.6802510000
 C         -3.8412204095        1.1231784411       -0.8238011285
 C         -4.8919036895        2.0453199019       -1.3800685672
 C         -5.9430024593        2.4872174008       -0.3525499866
 C         -6.9456668093        1.4082915105        0.0588160524
 H         -7.7470134892        1.9080857299        0.6067680131
 H         -7.3890478695        0.9663008916       -0.8340299881
 C         -6.3575529493        0.3019284394        0.9457569610
 H         -5.4089000192        0.6397683788        1.3691833012
 H         -7.0314259492        0.1102917785        1.7838889809
 C         -6.1328714696       -1.0307538098        0.2313182094
 H         -7.0938212297       -1.4464639993       -0.0800395310
 H         -5.6786718995       -1.7273767207        0.9405581585
 C         -5.2181671498       -0.9415994785       -0.9970604207
 H         -4.9498606499       -1.9567730882       -1.2994100819
 H         -5.7414747299       -0.4580698475       -1.8215694500
 H         -5.4279417591        2.8629882697        0.5345028238
 H         -6.4979252392        3.3193676614       -0.7919544255
 H         -4.3667284294        2.9331511923       -1.7387499563
 H         -5.3870710697        1.5689263530       -2.2266953777
 O         -2.7134060294        1.8017960706       -0.4845560679
 C         -1.6265776793        1.1456337298        0.0656704611
 O         -0.6769199392        1.8977140694        0.3632799819
 H          2.0892485105       -0.1185748608        0.2685487890
 C          1.7652412103       -0.9330168001       -0.3611051819
 C          0.4786265603       -1.4334227301       -0.2261148322
 C          0.0689397500       -2.4676960990       -1.0607475834
 C          0.9361493598       -2.9865001980       -2.0042731441
 C          2.2281805399       -2.5038052181       -2.1178083138
 C          2.6468418001       -1.4699915791       -1.2886238926
 N          3.9445339202       -0.9516302891       -1.3875092822
 S          4.7617284505       -0.4226458308       -0.0279999418
 O          6.1584987204       -0.4895797505       -0.4014682021
 O          4.3818845206       -1.1689390421        1.1482746174
 C          4.2920914407        1.2857159091        0.1357479203
 C          3.8011183409        1.7521567477        1.3383600409
 C          3.4612056911        3.0908394276        1.4506896426
 C          3.6198946110        3.9355261389        0.3635244335
 C          4.1182380908        3.4525147202       -0.8370318471
 C          4.4594876106        2.1152638003       -0.9551448188
 H          4.8529811604        1.7042772213       -1.8698605393
 H          4.2387755307        4.1139823312       -1.6798974564
 H          3.3509932212        4.9761684288        0.4533017448
 H          3.0695904113        3.4672747866        2.3821120831
 H          3.6891032710        1.0605552068        2.1590429601
 H          4.5507641600       -1.4316959084       -2.0361160429
 H          2.9086002497       -2.9218143073       -2.8442443644
 H          0.6072258796       -3.7862923672       -2.6506974150
 H         -0.9336755700       -2.8546657990       -0.9645998736
 C         -0.4323829695       -0.8644153012        0.8353295486
 H          0.1057131107       -0.0372856318        1.3183693195
 C         -0.7246259394       -1.9187934924        1.8868727374
 C          0.3783253607       -2.3308663236        2.8133928567
 C         -0.7743446391       -1.5241024241        3.3304204879
 H         -1.4952789091       -2.0077909547        3.9724818574
 H         -0.6022209789       -0.4851589544        3.5722934691
 H          1.3375916907       -1.8465596536        2.6993684671
 H          0.4478731606       -3.3692134439        3.0998594355
 H         -1.4135001995       -2.6826403619        1.5518499166
 O         -2.9234797698       -2.2428347698       -0.0663158726
