  62
        -98.94182939
 C         -1.6895018431       -0.9392186289       -0.2964795981
 C         -3.0444579384       -1.3566631401       -0.3036038480
 C         -4.0466399334       -0.3080114806       -0.5361438441
 C         -3.6390044687        0.9625244131       -0.7074535119
 C         -4.5521362211        2.1369076893       -0.9055895329
 C         -4.9177334910        2.7898179079        0.4346922570
 C         -5.3935109548        1.7974885677        1.4956684235
 H         -4.5635323674        1.1413959555        1.7679338150
 H         -5.6530051888        2.3732037191        2.3867410082
 C         -6.5958712690        0.9423944960        1.0719025905
 H         -7.0974945684        1.4036242496        0.2203516366
 H         -7.3137509409        0.9149698336        1.8944072822
 C         -6.2532282235       -0.5093480067        0.7320042521
 H         -5.6693905708       -0.9484329557        1.5450363619
 H         -7.1880400545       -1.0718923564        0.6611594859
 C         -5.4896196787       -0.7256925798       -0.5806621805
 H         -5.4847964918       -1.8000093794       -0.7877709333
 H         -6.0114711385       -0.2215713756       -1.3969031342
 H         -5.6959893027        3.5337499598        0.2550831058
 H         -4.0357399108        3.3060473882        0.8204974154
 H         -4.0384311206        2.8708303057       -1.5287576867
 H         -5.4532899407        1.8067051315       -1.4188187394
 O         -2.3344089120        1.3304569081       -0.6692150728
 C         -1.3243763444        0.3992398482       -0.4501544419
 O         -0.1842923756        0.8934056579       -0.4176396370
 H          2.1249923710       -1.7050354632       -0.3009384946
 C          1.7429226059       -1.4399182351        0.6696886990
 C          0.3873713959       -1.5213655486        0.9452532352
 C         -0.0570976583       -1.1665631789        2.2169841050
 C          0.8303486621       -0.7294981525        3.1797796647
 C          2.1826125512       -0.6430458927        2.8982529877
 C          2.6397227125       -1.0041039717        1.6368467304
 N          4.0129704144       -0.9735291300        1.3524712327
 S          4.6345217332       -0.4841570575       -0.1182543020
 O          4.2117608626       -1.3832285512       -1.1612786144
 O          6.0605440841       -0.4101417656        0.1173087851
 C          3.9961942872        1.1558547604       -0.3937434312
 C          4.6240079855        2.2101257622        0.2421387088
 C          4.1239341212        3.4894482385        0.0696967851
 C          3.0065305454        3.6905555033       -0.7275154199
 C          2.3908733942        2.6223725048       -1.3597162342
 C          2.8872766166        1.3396278314       -1.1919496003
 H          2.4224442775        0.4895251942       -1.6622100498
 H          1.5140047001        2.7718592266       -1.9683187881
 H          2.6128432668        4.6864700095       -0.8583442789
 H          4.6020508453        4.3243525124        0.5565726848
 H          5.4981301545        2.0115093392        0.8411395236
 H          4.5869903366       -0.6317123970        2.1092238191
 H          2.8788042685       -0.3042274754        3.6503127725
 H          0.4689696147       -0.4521451025        4.1586994342
 H         -1.1142589715       -1.2331605904        2.4372413253
 C         -0.6265106529       -1.9972076087       -0.0650573712
 H         -1.1742189291       -2.8440324005        0.3831792703
 C          0.0074178746       -2.5241100837       -1.3438029278
 C         -0.7526905129       -2.5589756238       -2.6346728240
 C          0.4042761887       -1.6214578338       -2.4716384425
 H          1.3248248478       -1.8343133223       -2.9968821393
 H          0.1950373118       -0.5684996219       -2.3634172629
 H         -1.7493647015       -2.1420806874       -2.6421404038
 H         -0.6345877569       -3.4199545312       -3.2753129845
 H          0.6587626846       -3.3723260392       -1.1536167217
 O         -3.3994893985       -2.5519560131       -0.1199903491
