  62
        -98.93354731
 C          2.5289788131        0.6767729331        0.2372517635
 C          2.8641135267       -0.4447158548        1.0332768861
 C          2.8657941205       -1.7607377101        0.3728767037
 C          2.5067588539       -1.8472777950       -0.9213200833
 C          2.4311214148       -3.0339983297       -1.8590222047
 C          2.4792813084       -4.4602458575       -1.3177270249
 C          1.2592918014       -4.8705034978       -0.4936483762
 H          0.3987096250       -4.9459791048       -1.1631993235
 H          1.4469794868       -5.8623764881       -0.0763712439
 C          0.8738316214       -3.9207572993        0.6382140493
 H          0.5756486313       -2.9540307351        0.2237801107
 H         -0.0079933951       -4.3363237052        1.1342021469
 C          1.9462454124       -3.7069213217        1.7052201676
 H          2.2607541460       -4.6722976139        2.1067090443
 H          1.4900745449       -3.1375277989        2.5197714162
 C          3.1962076434       -2.9358515551        1.2477389390
 H          3.9087139731       -3.5928303991        0.7551243296
 H          3.6844526322       -2.5280915237        2.1377671313
 H          3.3933561984       -4.6182077719       -0.7529228334
 H          2.5260248250       -5.1208970961       -2.1877225388
 H          1.5058436186       -2.8972972295       -2.4285945492
 H          3.2539221995       -2.9038896173       -2.5709731209
 O          2.1688743318       -0.7413454508       -1.6454076746
 C          2.1315103371        0.5285313299       -1.0924412260
 O          1.7450552403        1.4088345784       -1.8837414825
 O          3.1453015090       -0.3529417918        2.2594615763
 C          2.4306417266        2.0291394969        0.9251854074
 C          1.0644796344        2.5983874066        0.6372227796
 C          0.8323099627        3.8170475858        0.0156461857
 C         -0.4583540333        4.2099878021       -0.2982460358
 C         -1.5398163325        3.3985575304       -0.0071422408
 C         -1.3165955809        2.1885448309        0.6329164522
 C         -0.0297877846        1.8056987089        0.9628668682
 H          0.1363290343        0.8458516310        1.4396746700
 N         -2.4173921745        1.3193095412        0.8857623511
 S         -2.6900069360        0.3025510826       -0.4447774838
 O         -1.7358003486       -0.7882323229       -0.4388575186
 O         -2.7443851527        1.1152939151       -1.6320674638
 C         -4.3201071538       -0.3119013445       -0.0622083984
 C         -4.4815289556       -1.5918455373        0.4302051534
 C         -5.7564562052       -2.0285288521        0.7563618355
 C         -6.8403450228       -1.1804361195        0.5895372794
 C         -6.6617655974        0.1031137164        0.0945782254
 C         -5.3904762648        0.5446030106       -0.2341735959
 H         -5.2018767010        1.5291778992       -0.6283847973
 H         -7.5071650927        0.7593367901       -0.0351167538
 H         -7.8306834557       -1.5224727755        0.8454763011
 H         -5.8976563262       -3.0263894620        1.1394315104
 H         -3.6103801748       -2.2181975892        0.5382578149
 H         -2.2182258218        0.7106025285        1.6712284547
 H         -2.5437159220        3.6743548907       -0.2846735377
 H         -0.6202022441        5.1533374854       -0.7973795667
 H          1.6653772327        4.4434466243       -0.2589257730
 H          2.4802514056        1.7874800686        2.0006471415
 C          3.5751211488        2.9889813429        0.6478040225
 C          4.9332773302        2.4760602799        0.2750086843
 C          4.1163065096        3.2310195671       -0.7280717165
 H          4.4239913091        4.2342969904       -0.9848050431
 H          3.6669757717        2.6889945106       -1.5447302807
 H          5.8002486984        2.9564145173        0.7029840019
 H          5.0429528738        1.4092342797        0.1427140298
 H          3.5526954993        3.8441099322        1.3166049596
