  62
        -98.94850514
 C         -1.2475524264       -1.5186722157        0.4964126647
 C         -2.1522256547       -1.1670114529       -0.5341709518
 C         -3.1842033616       -0.1854943165       -0.1716789982
 C         -3.2200171189        0.3061787862        1.0799190862
 C         -4.1964213935        1.3346732544        1.5710386554
 C         -3.6378279828        2.7562766458        1.4228155808
 C         -3.0634258117        3.0605521115        0.0387249943
 H         -2.7521219675        4.1080944211        0.0429547951
 H         -2.1550562057        2.4714679927       -0.1134343915
 C         -4.0382161853        2.8237241911       -1.1232796099
 H         -5.0628430048        2.8078181972       -0.7488730800
 H         -3.9586817793        3.6635207400       -1.8170068771
 C         -3.7728648489        1.5532534152       -1.9335606801
 H         -2.7149602301        1.5125462706       -2.2077643435
 H         -4.3503501580        1.6149417597       -2.8601039270
 C         -4.1450959204        0.2323668363       -1.2479473107
 H         -5.1639389042        0.2921223321       -0.8597102866
 H         -4.1091622634       -0.5571587659       -2.0044133664
 H         -2.8393389971        2.8957299921        2.1554762530
 H         -4.4368570138        3.4650116000        1.6504374262
 H         -4.3950385423        1.1422195645        2.6270905381
 H         -5.1261266821        1.2391354754        1.0133842728
 O         -2.3377657197       -0.0595177834        2.0444515953
 C         -1.3100247342       -0.9462377491        1.7656208747
 O         -0.5287842332       -1.1453701717        2.7195901254
 O         -2.1009404323       -1.6449804775       -1.6977517662
 C         -0.1053950308       -2.4734596539        0.2061390020
 C          0.7952195694       -1.9096717862       -0.8684573424
 C          1.4909985654       -2.7038989989       -1.7721829721
 C          2.3226451359       -2.1241970367       -2.7148878615
 C          2.4949955745       -0.7524257143       -2.7688319641
 C          1.8056499253        0.0496849405       -1.8669154493
 C          0.9686048165       -0.5351343988       -0.9313704172
 H          0.4183738466        0.1010385378       -0.2566368565
 N          1.9333068932        1.4463523806       -1.8810657782
 S          1.8614184029        2.3054344977       -0.4490686704
 O          0.5120625606        2.3422796370        0.0550715613
 O          2.4469556094        3.5876674856       -0.7783820360
 C          2.9437321066        1.4219912495        0.6601855965
 C          2.4393651933        0.6635994051        1.6960733670
 C          3.3206012419       -0.0510506199        2.4932955921
 C          4.6826213960        0.0054968123        2.2452572224
 C          5.1758782507        0.7808256920        1.2061238407
 C          4.3003372294        1.4926207032        0.4039188123
 H          4.6442770803        2.1156099192       -0.4056998043
 H          6.2363807361        0.8290286814        1.0187935603
 H          5.3619250613       -0.5552756408        2.8676206876
 H          2.9248582843       -0.6503577942        3.2980076067
 H          1.3759543855        0.6290299030        1.8758383168
 H          2.6333879270        1.8102227771       -2.5098948921
 H          3.1437677159       -0.3047521910       -3.5057206721
 H          2.8503194061       -2.7516039086       -3.4169693337
 H          1.3750195147       -3.7750600865       -1.7433407428
 H          0.4827392276       -2.5349982663        1.1347774967
 C         -0.6345922381       -3.8541383139       -0.1265589870
 C          0.1295856969       -5.0784543022        0.2767266616
 C         -1.1399386888       -4.7200801816        0.9870464261
 H         -2.0196683450       -5.3216355080        0.8147176331
 H         -1.0727018153       -4.3238918535        1.9901969681
 H          0.1199668748       -5.9325476546       -0.3836313803
 H          1.0596156251       -4.9378462781        0.8066242416
 H         -1.1803457204       -3.8734708357       -1.0626347959
