  62
        -98.94026387
 C          1.7917163697        1.0834305506       -0.2252099913
 C          3.1409260897        1.3641072908        0.0889426783
 C          4.1330836397        0.3561913608       -0.3241633416
 C          3.7125797697       -0.7471484195       -0.9673925912
 C          4.5450259697       -1.9134383395       -1.4237300111
 C          4.5647309300       -3.0195954892       -0.3548464908
 C          5.6590133802       -2.8749234588        0.7019428389
 H          6.6287414302       -3.0840651489        0.2454648387
 H          5.4820550005       -3.6412564286        1.4601230992
 C          5.7275230903       -1.5092965086        1.3903816885
 H          6.2576608705       -1.6371456083        2.3361877584
 H          4.7191298003       -1.1665261586        1.6292289286
 C          6.4554151900       -0.4469774388        0.5533395780
 H          6.9756209699       -0.9363832090       -0.2698359719
 H          7.2243538401        0.0304821014        1.1643189077
 C          5.5652539698        0.6782799610        0.0057550679
 H          6.0390283795        1.1072169608       -0.8837167223
 H          5.5036959399        1.4845684812        0.7436318677
 H          4.6995804600       -3.9831005293       -0.8504536606
 H          3.5849968101       -3.0348849592        0.1293648994
 H          5.5510972196       -1.5933161695       -1.6777115914
 H          4.0637881795       -2.3058836698       -2.3219500009
 O          2.4007324696       -0.9771117196       -1.2517090809
 C          1.4108369496       -0.0782746696       -0.8943746409
 O          0.2596861796       -0.4229015398       -1.2201227405
 O          3.5013602698        2.4072114210        0.6989566879
 C          0.7203565397        2.0861208106        0.1617076087
 C         -0.3347092100        1.4230256108        1.0109217291
 C          0.0611888003        0.7279866811        2.1519919592
 C         -0.8688050295        0.1046529513        2.9600886196
 C         -2.2160107796        0.1539128011        2.6440764099
 C         -2.6228450399        0.8497310107        1.5133615298
 C         -1.6857290001        1.4885071806        0.7107281394
 H         -2.0337989004        2.0154737103       -0.1611164207
 N         -3.9871195500        0.9433035605        1.1785770901
 S         -4.5143968803        0.4343130900       -0.3273052097
 O         -3.8567776606        1.1887524198       -1.3614027400
 O         -5.9552265303        0.5541174599       -0.2675510194
 C         -4.0690405901       -1.2915941399       -0.4015677793
 C         -2.7609687002       -1.6488852299       -0.6601505395
 C         -2.4264869301       -2.9948414899       -0.6465937592
 C         -3.3923336599       -3.9517317199       -0.3776389187
 C         -4.7018945299       -3.5741143699       -0.1199994085
 C         -5.0438526200       -2.2321170800       -0.1263820288
 H         -6.0488115900       -1.8916348700        0.0647246113
 H         -5.4531560198       -4.3192323699        0.0869483118
 H         -3.1222748398       -4.9960917499       -0.3702788085
 H         -1.4045660201       -3.2751717198       -0.8477661394
 H         -2.0155098503       -0.8982031499       -0.8710551399
 H         -4.6046133298        0.5704516006        1.8866364203
 H         -2.9451723094       -0.3379239588        3.2700252002
 H         -0.5444042892       -0.4299258585        3.8400780996
 H          1.1144675603        0.6840220413        2.3943904690
 H          1.2334639698        2.8403183708        0.7770024483
 C          0.1678152294        2.7661708902       -1.0731857614
 C         -0.3934448207        4.1524908102       -0.9805999517
 C          0.9188952091        3.9191675501       -1.6653190419
 H          0.9645630889        4.0075173498       -2.7404797119
 H          1.8223017792        4.2319956903       -1.1622293722
 H         -1.2539049509        4.3989927400       -1.5846050515
 H         -0.3825233606        4.6320332105       -0.0134124318
 H         -0.3038083007        2.0726571800       -1.7616838311
