  62
        -98.93830405
 C          2.0065598941        0.9215184136        0.2790505465
 C          2.3175608441       -0.2288747623       -0.4820144358
 C          3.5841706923       -0.9116501553       -0.1532721706
 C          4.3444965095       -0.4459426849        0.8517922064
 C          5.6752290630       -0.9679869385        1.3178322508
 C          6.8264452838       -0.2112991105        0.6338207854
 C          7.2597356552       -0.7820314956       -0.7159528206
 H          7.7793447896       -1.7289695858       -0.5548945113
 H          7.9794635964       -0.0832723026       -1.1485556458
 C          6.1291589018       -1.0098777549       -1.7226307950
 H          6.5721000832       -1.0519929225       -2.7196060124
 H          5.4466076442       -0.1582725683       -1.7081316804
 C          5.3497336813       -2.3092120626       -1.4705159930
 H          5.8999911442       -2.9221473375       -0.7568449441
 H          5.2986901059       -2.8854455026       -2.3968285732
 C          3.9042623320       -2.1239616885       -0.9855304232
 H          3.5957864998       -3.0178148680       -0.4324730389
 H          3.2385417840       -2.0501344247       -1.8511979113
 H          7.6932625206       -0.2177554758        1.2977098514
 H          6.5164773162        0.8297160544        0.5116208679
 H          5.7238716029       -0.7773067812        2.3920493291
 H          5.7515649085       -2.0379723798        1.1489784630
 O          3.9988307078        0.6522575386        1.5771643561
 C          2.8449603820        1.3600837585        1.3098391940
 O          2.6727450568        2.3529454622        2.0443836005
 H         -0.4416458831       -0.5789813916       -0.5998307965
 C         -0.9390053256       -0.0963398876        0.2281480295
 C         -0.4467064255        1.1096794706        0.7065425812
 C         -1.0877343127        1.7095430707        1.7841443065
 C         -2.1866721276        1.1096086589        2.3744074391
 C         -2.6691891755       -0.0972379717        1.9014385088
 C         -2.0355539697       -0.7031192197        0.8235530397
 N         -2.5183758736       -1.9273705087        0.3323656650
 S         -4.1700052691       -2.0860362470        0.1281240446
 O         -4.7828180978       -2.4297949596        1.3878824529
 O         -4.3356519915       -3.0529014068       -0.9345477836
 C         -4.7371187979       -0.4757845950       -0.3933779136
 C         -5.7017094937        0.1828523901        0.3413203332
 C         -6.1105078130        1.4430985408       -0.0649945014
 C         -5.5464138826        2.0216320546       -1.1910136759
 C         -4.5802364627        1.3456537480       -1.9204248013
 C         -4.1697664868        0.0845273162       -1.5208660972
 H         -3.4219483986       -0.4652909692       -2.0696632835
 H         -4.1419929136        1.7973234300       -2.7958262638
 H         -5.8602904549        3.0049866278       -1.5036058706
 H         -6.8630090220        1.9698198312        0.4993748080
 H         -6.1090425921       -0.3021368973        1.2135255129
 H         -2.0049483150       -2.2773303987       -0.4631247937
 H         -3.5154520279       -0.5854606277        2.3572390073
 H         -2.6713612027        1.5847578395        3.2134755019
 H         -0.7072102900        2.6444591365        2.1689992348
 C          0.7550021517        1.7600790849        0.0632695111
 H          0.9426136857        2.7049177931        0.5900930799
 C          0.4941214095        2.0720248491       -1.3981421066
 C         -0.3878148774        3.2314509038       -1.7463617865
 C          1.0876227125        3.3094612810       -1.9980642841
 H          1.4431748311        3.2687167676       -3.0168216781
 H          1.6835289859        3.9406399242       -1.3545431449
 H         -0.7947464406        3.8124595838       -0.9328723448
 H         -1.0474676706        3.1387395513       -2.5950910219
 H          0.4443236511        1.1924320662       -2.0255991542
 O          1.5925701787       -0.6877750575       -1.4068442491
