  62
        -98.93909725
 C          2.3199501420       -0.7081478422       -0.1208040703
 C          2.5161750608        0.6884179798       -0.2866069205
 C          3.7153056898        1.2614213609        0.3371100527
 C          4.5415970026        0.4560053843        1.0287731347
 C          5.8245011395        0.8905005539        1.6749206914
 C          7.0125594527        0.7297374696        0.7161735312
 C          6.7729509800        1.3282072011       -0.6698904098
 H          7.6873647410        1.1837794749       -1.2492996359
 H          5.9828695280        0.7637284429       -1.1704247639
 C          6.4024350635        2.8178447866       -0.6627327394
 H          6.6792587012        3.2643542974        0.2929051994
 H          6.9795835790        3.3262457853       -1.4379143773
 C          4.9268900396        3.1056322597       -0.9465718114
 H          4.6189381688        2.5828247776       -1.8557302806
 H          4.8187159053        4.1773688701       -1.1339668107
 C          3.9470860688        2.7374852075        0.1748902812
 H          4.2817917057        3.1796548437        1.1156165333
 H          2.9734693835        3.1669693725       -0.0794432348
 H          7.8878305278        1.1977869391        1.1701643538
 H          7.2194295834       -0.3361980302        0.5972429191
 H          5.7332347228        1.9291498879        1.9866421506
 H          5.9929894850        0.2687885159        2.5556770954
 O          4.3185519024       -0.8723266750        1.1766701653
 C          3.2137873746       -1.4924372745        0.6093330067
 O          3.1679996528       -2.7172403044        0.8336934728
 H         -1.2123240647        0.0989679431       -0.5271654972
 C         -1.1430387529       -0.6899171534        0.2081508299
 C         -0.0213414344       -1.5057609864        0.2480017243
 C          0.0512605726       -2.4982393022        1.2205589558
 C         -0.9834543245       -2.6694744984        2.1215382700
 C         -2.1128835374       -1.8722481037        2.0618489252
 C         -2.1893628900       -0.8697381384        1.1022092631
 N         -3.3097547093       -0.0265094989        1.0339854641
 S         -3.8279636991        0.4970428881       -0.4852945727
 O         -3.7645870689       -0.5946477779       -1.4309527624
 O         -3.1065524182        1.6932550901       -0.8398628251
 C         -5.5269367519        0.9033920340       -0.1259211589
 C         -6.5102365383       -0.0402371700       -0.3567507826
 C         -7.8248207836        0.2721171542       -0.0478669476
 C         -8.1318425027        1.5145024480        0.4864590574
 C         -7.1342782006        2.4515798626        0.7116247352
 C         -5.8179050087        2.1462273706        0.4040677738
 H         -5.0106004261        2.8446276943        0.5520453622
 H         -7.3769503354        3.4177011390        1.1238410057
 H         -9.1555092489        1.7554430518        0.7258414114
 H         -8.6029171685       -0.4526273587       -0.2254075285
 H         -6.2258977031       -0.9889746404       -0.7827790469
 H         -4.0798189710       -0.3472237213        1.6049560106
 H         -2.9250069941       -2.0176286238        2.7580490899
 H         -0.9148969580       -3.4423063881        2.8723050092
 H          0.9317729852       -3.1191886026        1.2725644353
 C          1.0801011498       -1.3041798318       -0.7659866859
 H          0.7319073927       -0.5399799634       -1.4751787204
 C          1.3478701038       -2.5822894033       -1.5368645921
 C          0.3236175044       -3.0501993841       -2.5254767700
 C          1.6360425298       -2.5078447810       -3.0046263115
 H          2.3564332200       -3.1945291475       -3.4232812097
 H          1.6459430272       -1.5298463014       -3.4640865965
 H          0.1416992291       -4.1100431424       -2.6160526055
 H         -0.5591260337       -2.4404312416       -2.6549427989
 H          1.8763677891       -3.3323023128       -0.9634923978
 O          1.7238753325        1.4240048683       -0.9362930189
