  62
        -98.94730761
 C         -2.2859321680       -0.7339234332        0.2225523762
 C         -1.5968762471       -0.0333810657       -0.7970566394
 C         -1.8667630014        1.4084103413       -0.8805112442
 C         -2.6478567555        1.9969282929        0.0422904169
 C         -3.0462304789        3.4474262207        0.0792899891
 C         -1.9974443871        4.3688439962        0.7155666292
 C         -0.7734562579        4.6552184462       -0.1543219588
 H         -1.0996978599        4.9813847113       -1.1428581555
 H         -0.2422923840        5.4902042599        0.3070062703
 C          0.1978674311        3.4751889820       -0.2944771402
 H          1.2237315615        3.8326010390       -0.1700311450
 H          0.0255660492        2.7498138449        0.5045977647
 C          0.1360825554        2.7529368076       -1.6393940395
 H          0.8501081854        1.9274388730       -1.6040485612
 H          0.4467184771        3.4345423719       -2.4351498525
 C         -1.2416101716        2.1840537786       -2.0023874218
 H         -1.9074334743        2.9915817692       -2.3089859905
 H         -1.1133210312        1.4988588029       -2.8443159158
 H         -2.4895781167        5.3186722234        0.9383919397
 H         -1.6738422586        3.9303195071        1.6627870596
 H         -3.2698657178        3.7926120106       -0.9309056277
 H         -3.9597555209        3.5012608306        0.6757152845
 O         -3.2068632219        1.3069081767        1.0723702765
 C         -3.0391866017       -0.0624865308        1.1878715338
 O         -3.6061252658       -0.5641927016        2.1810656253
 O         -0.8129001945       -0.5762360086       -1.6181749873
 C         -2.1444160788       -2.2372432244        0.3992940876
 C         -0.6871949689       -2.6207539803        0.3242541260
 C         -0.1743120115       -3.5968769124       -0.5199600067
 C          1.1824716557       -3.8736428042       -0.5268239394
 C          2.0556943819       -3.1669031059        0.2795806245
 C          1.5511514527       -2.1838517898        1.1235732185
 C          0.1884285318       -1.9443310946        1.1649290972
 H         -0.1923580070       -1.1812986245        1.8289303051
 N          2.3969407346       -1.3982663931        1.9359537174
 S          2.4414465404        0.2444066926        1.5962300515
 O          3.3902568624        0.7991962522        2.5384701279
 O          1.1099504138        0.7896742402        1.6385436788
 C          3.1328577280        0.3337836586       -0.0469044621
 C          2.3779404434       -0.0767653692       -1.1281523662
 C          2.9616226887       -0.0702491057       -2.3869880587
 C          4.2751537949        0.3422322360       -2.5442164881
 C          5.0187404368        0.7515948152       -1.4472893835
 C          4.4459977243        0.7419230938       -0.1862255145
 H          4.9841864610        1.0481110284        0.6963107770
 H          6.0402414941        1.0739001088       -1.5696515739
 H          4.7204173972        0.3444302975       -3.5265826600
 H          2.3740680005       -0.3887771404       -3.2331162426
 H          1.3530389464       -0.3878242898       -0.9942403151
 H          3.3445909357       -1.7469432482        1.9914663034
 H          3.1169289597       -3.3640219169        0.2531774281
 H          1.5675197778       -4.6361095517       -1.1865559197
 H         -0.8322634028       -4.1279139659       -1.1878911223
 H         -2.4840028297       -2.4306603440        1.4309427104
 C         -3.0397657846       -3.0617045041       -0.5139816588
 C         -4.3113838823       -2.4935827711       -1.0680925073
 C         -3.1607127516       -2.7850742888       -1.9812945588
 H         -3.2449188992       -3.6250797006       -2.6552013906
 H         -2.5969233193       -1.9572692563       -2.3796739359
 H         -5.1810954698       -3.1319878788       -1.1108026856
 H         -4.5384811622       -1.4616082489       -0.8414711898
 H         -3.0772304970       -4.1029569831       -0.2090137777
