  62
        -98.93748634
 C         -1.8243973799       -0.7418974392        0.8164895797
 C         -2.1182086198       -0.4348553500       -0.5320375305
 C         -3.5424606798       -0.4742777804       -0.9123178606
 C         -4.4580453798       -0.8109477902        0.0127087195
 C         -5.9518280798       -0.8584586105       -0.1535636706
 C         -6.5888907301        0.4715067796        0.2835652787
 C         -6.6635723502        1.5394960590       -0.8071122718
 H         -7.4180555101        1.2494126584       -1.5414229718
 H         -7.0055203004        2.4631352392       -0.3342908923
 C         -5.3497489602        1.8201411289       -1.5415214119
 H         -4.5275119503        1.8619258794       -0.8247428018
 H         -5.4276879204        2.8079766186       -1.9999349824
 C         -5.0375029199        0.7884012184       -2.6357006513
 H         -4.8134510899        1.3092789979       -3.5688711416
 H         -5.9281321198        0.1887328381       -2.8229511611
 C         -3.8442105097       -0.1348030313       -2.3464339608
 H         -3.9705174995       -1.0667380116       -2.9072823003
 H         -2.9254397598        0.3307303387       -2.7168724009
 H         -7.6040703501        0.2755418495        0.6346809487
 H         -6.0176080202        0.8524407701        1.1341647886
 H         -6.2185821696       -1.1050603711       -1.1768175604
 H         -6.3135936797       -1.6501658303        0.5058375898
 O         -4.1273175998       -1.1148394094        1.2988944697
 C         -2.8163607299       -1.0785875789        1.7357961998
 O         -2.6640010699       -1.3573731583        2.9429075800
 O         -1.2373285198       -0.1335974502       -1.3789213406
 C         -0.3868485899       -0.7088047987        1.3002930298
 C          0.2268906098        0.6458124313        1.0411054891
 C         -0.5095692704        1.7919561913        1.3303462885
 C          0.0182375894        3.0477104313        1.1043454679
 C          1.3008200594        3.1893835313        0.6040985879
 C          2.0511489396        2.0539436713        0.3280704785
 C          1.5122597099        0.7924415113        0.5440785292
 H          2.1113865300       -0.0748493387        0.3233073597
 N          3.3488273796        2.1619169113       -0.1913549614
 S          4.5514545098        1.1211899218        0.3226168692
 O          4.3825707698        0.7519829625        1.7087094994
 O          5.7859102997        1.8040316419       -0.0035976010
 C          4.4011216902       -0.3147440088       -0.7192668201
 C          4.0378171902       -0.1565169895       -2.0418422802
 C          3.9654617705       -1.2772380899       -2.8536513796
 C          4.2646292507       -2.5285407996       -2.3364721689
 C          4.6349809307       -2.6697471189       -1.0081511688
 C          4.7044050704       -1.5533135284       -0.1893247894
 H          4.9755503303       -1.6191934178        0.8524353807
 H          4.8675773708       -3.6435561086       -0.6068959583
 H          4.2070188410       -3.3986886400       -2.9713129485
 H          3.6737947706       -1.1713842505       -3.8861881097
 H          3.8068924601        0.8283360203       -2.4118706607
 H          3.6893947094        3.1055548313       -0.3027828719
 H          1.7159394092        4.1700995013        0.4275515974
 H         -0.5702935008        3.9257851713        1.3248255274
 H         -1.5092377304        1.6831290513        1.7296398585
 H         -0.4268785200       -0.8589735281        2.3897471599
 C          0.3913327504       -1.8513195388        0.6802761304
 C          1.5422111204       -2.4719015482        1.4117494508
 C          0.2529976606       -3.2220823586        1.2686285411
 H          0.2206859608       -4.0694316789        0.6006653716
 H         -0.3814685894       -3.3256159482        2.1371260811
 H          2.3940749006       -2.8048318284        0.8382608311
 H          1.7955422403       -2.0695027277        2.3813331507
 H          0.4535582804       -1.7722537794       -0.3992047496
