  62
        -98.93898747
 C         -2.0740741543       -0.7846528838        0.5712267569
 C         -2.0418087628       -0.0519971804       -0.6371915280
 C         -2.0621994130        1.4161247444       -0.5179998708
 C         -2.0755083292        1.9799283046        0.7037810192
 C         -2.0224277142        3.4320421504        1.1326710760
 C         -2.2868421495        4.5532194730        0.1310401573
 C         -3.7209459412        4.6184043270       -0.3925084332
 H         -4.3768794458        4.9198810990        0.4278449101
 H         -3.7681510878        5.3938912510       -1.1600282412
 C         -4.2699010631        3.3155595815       -0.9680406528
 H         -4.3266479621        2.5615786489       -0.1803598216
 H         -5.2914933321        3.5046461790       -1.3084888390
 C         -3.4858141787        2.7413710810       -2.1465145568
 H         -3.3767484821        3.5023988588       -2.9214197281
 H         -4.0743253398        1.9201048688       -2.5636339086
 C         -2.0918700328        2.1828548268       -1.8083259997
 H         -1.8104812869        1.4700725388       -2.5891350288
 H         -1.3362359364        2.9652505494       -1.8011844529
 H         -1.5817096160        4.4920177534       -0.6926260444
 H         -2.0827020475        5.4910904449        0.6548825606
 H         -1.0210947460        3.5730289817        1.5561320273
 H         -2.7259822560        3.5223168794        1.9667356285
 O         -2.0909409046        1.2284249101        1.8456848587
 C         -2.0797453502       -0.1538955780        1.8117218584
 O         -2.0850187675       -0.6978708127        2.9366112348
 O         -1.9944830747       -0.5976733882       -1.7714200255
 C         -1.9874516660       -2.3000123505        0.5398956805
 C         -0.7119893817       -2.6982140251       -0.1641289977
 C         -0.6402975535       -3.6945456602       -1.1284235270
 C          0.5603043411       -3.9672502104       -1.7619916358
 C          1.7029241773       -3.2506893179       -1.4590416340
 C          1.6454090585       -2.2664000430       -0.4778339979
 C          0.4500518233       -2.0153397624        0.1727000774
 H          0.4164210615       -1.2468106894        0.9326904735
 N          2.7898875171       -1.5313426389       -0.1202533587
 S          2.5870224634        0.0775742513        0.3524759095
 O          2.2336920085        0.1103064862        1.7510094845
 O          1.6959732885        0.7666087665       -0.5531659285
 C          4.2579086547        0.6688133753        0.1491418199
 C          5.1866762310        0.3739726364        1.1295110156
 C          6.4959628477        0.7953807569        0.9605096283
 C          6.8531810301        1.4999341628       -0.1797720446
 C          5.9097783317        1.7904979827       -1.1537279795
 C          4.5986040405        1.3704546964       -0.9916127625
 H          3.8287450305        1.5778132879       -1.7176730603
 H          6.1891466987        2.3413405880       -2.0373208489
 H          7.8727892442        1.8267802237       -0.3089392686
 H          7.2311384265        0.5732251787        1.7169708899
 H          4.8587371195       -0.1678235838        2.0013288105
 H          3.5402396763       -1.6262075220       -0.7915107069
 H          2.6310978828       -3.4477206371       -1.9735040792
 H          0.6014161476       -4.7376654153       -2.5170144914
 H         -1.5266468441       -4.2463469705       -1.3954030274
 H         -1.9169316336       -2.6227136573        1.5896527793
 C         -3.2345340088       -2.8984526702       -0.0758445281
 C         -3.7016960143       -4.2607872296        0.3380939660
 C         -4.4600297611       -3.0441001512        0.7735537242
 H         -5.4230717321       -2.8463940437        0.3275059252
 H         -4.3847122234       -2.7328019320        1.8056144621
 H         -4.1494259793       -4.9009582873       -0.4069234906
 H         -3.1182588457       -4.7847829761        1.0800166746
 H         -3.3723231634       -2.5970192773       -1.1077799471
