  62
        -98.94448700
 C         -1.4130990806       -1.1825202107       -0.5019809697
 C         -2.7733231808       -1.4803484101       -0.2470238201
 C         -3.7250965104       -0.3863095499       -0.4813998411
 C         -3.2669517898        0.8024071497       -0.9150270316
 C         -4.1168950293        2.0197909098       -1.1342808426
 C         -4.1826679896        2.8849287106        0.1320661669
 C         -4.5250305003        2.1000308214        1.3983666872
 H         -3.7081756406        1.4100563413        1.6220732179
 H         -4.5756607104        2.8159235219        2.2215555468
 C         -5.8426437805        1.3160529618        1.3224938771
 H         -6.3976641209        1.4726818625        2.2499037868
 H         -6.4577961601        1.7017624715        0.5087183567
 C         -5.6730396110       -0.1952251884        1.1558876681
 H         -6.6431192612       -0.6678196179        1.3319477179
 H         -4.9835826214       -0.5724272582        1.9153965185
 C         -5.1785699006       -0.6641615093       -0.2184776815
 H         -5.8026010801       -0.2296098296       -1.0020630620
 H         -5.2876860109       -1.7520156993       -0.2568275709
 H         -4.9254906792        3.6693603607       -0.0238747739
 H         -3.2100023895        3.3598277203        0.2773010570
 H         -3.6757982988        2.6058167692       -1.9420873628
 H         -5.1179168693        1.7103362100       -1.4283211928
 O         -1.9549201697        1.0478548691       -1.1588665312
 C         -0.9918962801        0.0695970789       -0.9512160703
 O          0.1695318302        0.4347755984       -1.2040074000
 O         -3.1720473614       -2.6051493098        0.1592788504
 C         -0.3694802411       -2.2581923509       -0.2524356087
 C          0.5418732586       -1.7864732606        0.8522695414
 C          0.0380031781       -1.7268940897        2.1501175612
 C          0.8182516079       -1.2638210693        3.1910928012
 C          2.1138093281       -0.8358239499        2.9568420815
 C          2.6233243186       -0.8856187508        1.6649884617
 C          1.8422387989       -1.3668118411        0.6224557917
 H          2.2648557692       -1.3950534318       -0.3669396181
 N          3.9360097788       -0.4666073214        1.4034927620
 S          4.3354985397        0.3178302277       -0.0128213383
 O          4.3634493498       -0.6142098630       -1.1122986378
 O          5.6040650497        0.9512292174        0.2911721918
 C          3.1155102902        1.5883288279       -0.2954185195
 C          2.7995986008        1.9134300573       -1.5970829298
 C          1.9045934112        2.9424927274       -1.8354674208
 C          1.3383758710        3.6235329182       -0.7711735114
 C          1.6660893204        3.2859530289        0.5318035389
 C          2.5679851600        2.2637039887        0.7757914599
 H          2.8336394995        1.9875305692        1.7834117401
 H          1.2176505203        3.8123436695        1.3597008885
 H          0.6305477914        4.4160357684       -0.9584507721
 H          1.6409598017        3.1985096769       -2.8493048910
 H          3.2452259609        1.3446676067       -2.3974494493
 H          4.4295883587       -0.0775193511        2.1933698820
 H          2.7264576479       -0.4697842996        3.7667921715
 H          0.4159187375       -1.2289284986        4.1922198710
 H         -0.9791931020       -2.0484349892        2.3275788810
 H         -0.9297027615       -3.1313439805        0.1107581716
 C          0.3537539893       -2.6402229519       -1.5254155182
 C          1.0893008189       -3.9439337822       -1.5940834871
 C         -0.1817684308       -3.7584151922       -2.3660823377
 H         -0.1256072403       -3.6677490128       -3.4405475178
 H         -1.0705511311       -4.2633336717       -2.0165658078
 H          2.0233538591       -3.9790181028       -2.1342180168
 H          1.0638722483       -4.5768386316       -0.7197899268
 H          0.7812671398       -1.7908467523       -2.0456735385
