  62
        -98.93554182
 C          1.9916586523        1.5271137645        0.0966446515
 C          2.3208526462        0.5597917547       -0.8808004403
 C          3.6620314988       -0.0590973040       -0.7846032823
 C          4.4821407848        0.3061746068        0.2170168942
 C          5.8575857646       -0.2136704729        0.5413288526
 C          5.8267578860       -1.6018771009        1.1997629630
 C          4.8816779232       -2.6031600071        0.5411105814
 H          4.8776308416       -3.5086709556        1.1537922381
 H          3.8669772581       -2.2006988476        0.5547212141
 C          5.2515643550       -3.0051216796       -0.8848143569
 H          4.5580252296       -3.7934999752       -1.1889410073
 H          6.2575591998       -3.4305554754       -0.8873154201
 C          5.1908059906       -1.8907773400       -1.9322765599
 H          5.2205104274       -2.3684044337       -2.9160821474
 H          6.0657185672       -1.2488014287       -1.8757209625
 C          3.9180725727       -1.0510656853       -1.8943773776
 H          3.8543456885       -0.4735453877       -2.8245741566
 H          3.0493380792       -1.7192615164       -1.9121733632
 H          6.8413029607       -2.0039768993        1.2044696356
 H          5.5083204567       -1.4770036234        2.2376931230
 H          6.4756271461       -0.2227374728       -0.3514897824
 H          6.3005543588        0.4944026855        1.2452840677
 O          4.1167903711        1.2337551745        1.1476889695
 C          2.8903902972        1.8625859872        1.1131836300
 O          2.7157387722        2.6977764203        2.0233435206
 O          1.5461622874        0.1970258276       -1.8051199071
 C          0.6688384000        2.2771199995        0.1249673327
 C         -0.4023511813        1.4764127401        0.8194442595
 C         -1.1592627396        2.0302742913        1.8449508778
 C         -2.1458317799        1.2888385866        2.4725478464
 C         -2.4007114912       -0.0149331351        2.0875035433
 C         -1.6525035065       -0.5756842751        1.0598536920
 C         -0.6637356527        0.1686924570        0.4330574292
 H         -0.0887236201       -0.2692290902       -0.3693177186
 N         -1.9120098180       -1.8952358798        0.6483688866
 S         -3.5108934236       -2.3087961060        0.3714759316
 O         -4.1546880234       -2.6040051952        1.6275068773
 O         -3.4674428350       -3.3914665154       -0.5854505905
 C         -4.2416964129       -0.8527158395       -0.3552171935
 C         -3.7665050079       -0.4322879146       -1.5818290509
 C         -4.2851369882        0.7243789282       -2.1409692977
 C         -5.2622357306        1.4392103635       -1.4651806188
 C         -5.7327855137        1.0009621008       -0.2372800858
 C         -5.2179851565       -0.1554623805        0.3266471696
 H         -5.5543767875       -0.5312459978        1.2790480975
 H         -6.4945024348        1.5574898323        0.2844286758
 H         -5.6573031426        2.3433002374       -1.9004778694
 H         -3.9184561788        1.0675559922       -3.0949558912
 H         -3.0065367979       -1.0114885812       -2.0826641810
 H         -1.3208539469       -2.2018676223       -0.1106211997
 H         -3.1586388802       -0.6102231592        2.5702964093
 H         -2.7215526165        1.7296736528        3.2717562823
 H         -0.9595009832        3.0441162870        2.1594659746
 H          0.8646361629        3.1690800773        0.7403262354
 C          0.2429127353        2.7684056394       -1.2535324571
 C         -0.9185515539        2.2149287703       -2.0170856857
 C         -1.0105201666        3.5787399732       -1.4065233117
 H         -0.9917520530        4.4429308045       -2.0528562491
 H         -1.6360110329        3.6900461144       -0.5337021457
 H         -0.8116107894        2.1266925894       -3.0874309588
 H         -1.4937994125        1.4200192924       -1.5698479956
 H          1.0979518642        3.0809961905       -1.8450087922
