  62
        -98.94055770
 C         -1.6827786304       -0.2315364877       -0.7957503432
 C         -2.9925877626       -0.3827091586       -1.3195504673
 C         -4.0435044995        0.4147906002       -0.6782924869
 C         -3.7318479324        1.2215387558        0.3518964378
 C         -4.6845443175        2.1181195379        1.0951706678
 C         -5.4681198276        1.4102924740        2.2089748289
 C         -6.5617812194        0.4552694901        1.7291323365
 H         -7.1690704606        0.1998740871        2.5998282363
 H         -7.2101103673        0.9726966206        1.0212557258
 C         -6.0370429503       -0.8413678788        1.0966278221
 H         -4.9891842838       -0.9827593366        1.3716844480
 H         -6.5903869688       -1.6930210866        1.4989182111
 C         -6.1612365838       -0.8995815390       -0.4260103435
 H         -7.2163935171       -0.8932708201       -0.7083670188
 H         -5.7268129246       -1.8418151261       -0.7700118611
 C         -5.4519468579        0.2447241381       -1.1619109368
 H         -5.4117088326       -0.0047672091       -2.2251734049
 H         -6.0106060543        1.1727730185       -1.0413662107
 H         -4.7624237186        0.8673494386        2.8419527834
 H         -5.9356659173        2.1849653582        2.8211259912
 H         -4.0799559504        2.9066863308        1.5482059982
 H         -5.3817229024        2.5749615623        0.3921417881
 O         -2.4684259784        1.3266712839        0.8376223559
 C         -1.4169809558        0.5906824932        0.3009237718
 O         -0.3349807700        0.7706006413        0.8871757463
 H          2.0593145800       -0.6733818619       -0.7448236337
 C          1.5646776445       -1.3977751367       -0.1214993850
 C          0.2398205080       -1.7269906552       -0.3539420155
 C         -0.3679812880       -2.6761457907        0.4636258315
 C          0.3345790373       -3.2707100034        1.4936486620
 C          1.6528761474       -2.9260076106        1.7354043552
 C          2.2671377012       -1.9767839420        0.9264733102
 N          3.5782545872       -1.5741127533        1.1877088197
 S          4.5852109272       -0.7563968280        0.1559942970
 O          4.3842855210       -1.1651784477       -1.2157295361
 O          5.9120769954       -0.9866959472        0.6874788335
 C          4.2144695639        0.9844165769        0.3141477426
 C          3.0286549965        1.4508499167        0.8433784431
 C          2.8221984498        2.8218268566        0.9053889606
 C          3.7914312821        3.6985089741        0.4470480861
 C          4.9800080944        3.2136755833       -0.0783027290
 C          5.1927210167        1.8472348362       -0.1460791300
 H          6.1030753977        1.4275225282       -0.5434637316
 H          5.7366440917        3.8939706771       -0.4350580835
 H          3.6200188892        4.7622862267        0.4983563620
 H          1.8900288855        3.1856207423        1.3080007640
 H          2.2595265543        0.7774088154        1.1851195745
 H          4.0561672223       -2.0254814375        1.9500323731
 H          2.1981734096       -3.3769270828        2.5502615057
 H         -0.1484184904       -4.0051547881        2.1207543781
 H         -1.4040269770       -2.9326123780        0.2872087317
 C         -0.5760639280       -1.0567801080       -1.4288470479
 H         -1.1070086546       -1.8391526243       -1.9966523902
 C          0.2754973385       -0.2937457199       -2.4323742374
 C         -0.3027985838        0.8210951554       -3.2495516263
 C          0.7249720994        1.1170740273       -2.2005632839
 H          1.7215687088        1.3918800950       -2.5164165310
 H          0.4098353194        1.6017771674       -1.2902400334
 H         -0.0185996537        0.8972202524       -4.2882758863
 H         -1.3272295453        1.1032685813       -3.0541785374
 H          0.9814272033       -0.9458919348       -2.9393056958
 O         -3.2703113885       -1.1509558796       -2.2787553336
