  62
        -98.93494028
 C         -2.3375989170       -1.1396138006        0.0054767652
 C         -2.1478818871        0.0978162903       -0.6521219424
 C         -2.8748605297        1.2581231484       -0.1016837641
 C         -3.6455988611        1.1081571248        0.9906442106
 C         -4.4489479498        2.1101981453        1.7933539156
 C         -4.7727423161        3.4900628833        1.2260137495
 C         -5.7137766236        3.4833737443        0.0219899478
 H         -5.7978467421        4.5068705397       -0.3497815846
 H         -6.7050849113        3.1682617017        0.3570856631
 C         -5.3039008348        2.5687639009       -1.1294798565
 H         -6.0541011350        2.6687803174       -1.9185013748
 H         -5.3239760466        1.5289141078       -0.7969806387
 C         -3.9385688572        2.8660873545       -1.7464583855
 H         -3.8885436276        3.9161425457       -2.0408149579
 H         -3.8482050459        2.2596848356       -2.6515462907
 C         -2.7244370645        2.5482083266       -0.8558046161
 H         -2.5064849506        3.3654059334       -0.1721488668
 H         -1.8516626939        2.4258581089       -1.5036866454
 H         -3.8571564458        4.0249527076        0.9911300916
 H         -5.2663878000        4.0461425099        2.0276984435
 H         -5.3833354978        1.6013752685        2.0508625387
 H         -3.9014084889        2.2426890156        2.7333763959
 O         -3.7747118686       -0.1003241465        1.6124192203
 C         -3.1444908697       -1.2353233766        1.1426678951
 O         -3.3816600379       -2.2618883061        1.8104543683
 H          0.3949822365       -0.8252454348       -1.0772336192
 C          0.6880908344       -1.5855309940       -0.3679451671
 C         -0.2551658029       -2.5043223379        0.0697096934
 C          0.1328273580       -3.4594928527        1.0015752473
 C          1.4316392091       -3.4918619853        1.4792052198
 C          2.3683352260       -2.5722285957        1.0418771087
 C          1.9859144545       -1.6074435009        0.1197948122
 N          2.9297363697       -0.6487454206       -0.3247809473
 S          3.4155949811        0.4840106879        0.8339549144
 O          3.8196274165       -0.2165993322        2.0259803543
 O          2.3936627977        1.4972422171        1.0031297871
 C          4.8430820191        1.1845452878        0.0297642014
 C          4.7407159081        2.4053371466       -0.6077678391
 C          5.8545482054        2.9197941877       -1.2532637570
 C          7.0432429039        2.2060809719       -1.2529723989
 C          7.1297204576        0.9804694339       -0.6090885327
 C          6.0203430213        0.4615958575        0.0386800618
 H          6.0426899100       -0.4819886412        0.5578667644
 H          8.0562116323        0.4293392457       -0.6101182784
 H          7.9080271338        2.6086763137       -1.7563404994
 H          5.7901176579        3.8730274724       -1.7529849028
 H          3.7980039226        2.9280916946       -0.5768689349
 H          2.5568804708       -0.1259358231       -1.1086682242
 H          3.3756803507       -2.5749980914        1.4234540450
 H          1.7172467136       -4.2401371484        2.2030965148
 H         -0.5980760236       -4.1669237060        1.3663027182
 C         -1.6783976003       -2.4401598895       -0.4317561907
 H         -2.2437112782       -3.2380949702        0.0682202938
 C         -1.7447913968       -2.6723339747       -1.9287674307
 C         -1.5977578168       -4.0680126317       -2.4523130109
 C         -2.9292674341       -3.3824088314       -2.5083254250
 H         -3.3053793763       -3.0575803063       -3.4667953158
 H         -3.7004154869       -3.7078008887       -1.8249607694
 H         -1.4665510250       -4.8607599804       -1.7314264149
 H         -1.0569335992       -4.2172759099       -3.3740547633
 H         -1.3162860944       -1.8669500996       -2.5099320645
 O         -1.4051112297        0.2620923564       -1.6581462202
