  62
        -98.93545128
 C          2.3216446181        0.7486513233        0.5103958022
 C          2.3442659845       -0.0503894525       -0.6549820679
 C          2.3238498381       -1.5111176909       -0.4544788319
 C          2.2891603407       -1.9987046262        0.7984760874
 C          2.2097334001       -3.4335449213        1.2570173461
 C          3.0744311359       -4.4613291775        0.5116258500
 C          2.2656145752       -5.4073098579       -0.3780677070
 H          2.8326041478       -6.3314774090       -0.5105439586
 H          1.3399779338       -5.6632348730        0.1416248498
 C          1.9302058073       -4.8685923215       -1.7675225937
 H          2.8376767121       -4.8452603534       -2.3747308138
 H          1.2412936337       -5.5740397382       -2.2378015686
 C          1.2989866855       -3.4752122009       -1.7947023620
 H          0.5638399138       -3.3653496029       -0.9969234952
 H          0.7592504251       -3.3696099877       -2.7382987688
 C          2.3262283327       -2.3356855920       -1.7123627185
 H          3.3336278238       -2.7258376896       -1.8821734371
 H          2.1394921562       -1.6136420338       -2.5133579875
 H          3.8388949415       -3.9500347661       -0.0706754076
 H          3.5886515528       -5.0645402231        1.2616918139
 H          2.4916943221       -3.4074568990        2.3124605183
 H          1.1591202896       -3.7358660976        1.2256579991
 O          2.2860200969       -1.1871338170        1.8965797969
 C          2.2722029066        0.1900365744        1.7844143359
 O          2.2268695729        0.7982150914        2.8755322417
 H         -0.1394390394        1.0339410915        0.4763147093
 C         -0.1594019338        1.8753811559       -0.2014006988
 C          0.9884963360        2.6360117806       -0.3828039434
 C          0.9321882845        3.7239656588       -1.2444910736
 C         -0.2425252618        4.0258371098       -1.9125299422
 C         -1.3767566188        3.2545056525       -1.7423681554
 C         -1.3293252378        2.1600712691       -0.8839988358
 N         -2.4458890893        1.3221168109       -0.7349296194
 S         -2.5722529815        0.2651025826        0.5661683314
 O         -2.4620333950        0.9842998793        1.8175229235
 O         -1.6613876185       -0.8359818650        0.3734337984
 C         -4.2495259527       -0.2934786856        0.3329254519
 C         -5.2698185991        0.3010808609        1.0510136128
 C         -6.5734330270       -0.1194720258        0.8385126690
 C         -6.8336562037       -1.1203801182       -0.0853416599
 C         -5.7992157462       -1.7088488219       -0.7978190726
 C         -4.4936216141       -1.2934562607       -0.5893767835
 H         -3.6562841983       -1.7258110170       -1.1122477207
 H         -6.0044557650       -2.4888524163       -1.5130909303
 H         -7.8485989340       -1.4462971693       -0.2490185003
 H         -7.3787639530        0.3339569874        1.3934755827
 H         -5.0177404960        1.0684669423        1.7651833980
 H         -3.3238852802        1.7659205190       -0.9634651588
 H         -2.2872484241        3.4848893784       -2.2735170138
 H         -0.2733357707        4.8745989080       -2.5787878474
 H          1.8086378423        4.3330026429       -1.3948938657
 C          2.2317606998        2.2575701480        0.3892965999
 H          2.1211780807        2.6384917790        1.4165809617
 C          3.5027917602        2.8252794946       -0.2092302629
 C          4.0012174696        4.1760236653        0.2060840715
 C          4.7183729423        2.9410414461        0.6590503325
 H          5.6826349377        2.7137294356        0.2302304169
 H          4.6167532606        2.6375146400        1.6913036182
 H          3.4230772980        4.7197644076        0.9381158852
 H          4.4785140211        4.7995028369       -0.5348594742
 H          3.6483764790        2.5158779326       -1.2376304869
 O          2.3684673249        0.4325205948       -1.8183424167
