  62
        -98.93920295
 C          1.3906014950        1.5356554448       -0.3218153588
 C          2.6199491750        1.4127023064        0.3727059842
 C          3.5502333724        0.3661142554       -0.0880273219
 C          3.1948994850       -0.3941870996       -1.1400498684
 C          3.9555419693       -1.5509960233       -1.7273755443
 C          3.8094806681       -2.8389569555       -0.8914006982
 C          3.7416102960       -2.6300672297        0.6211447631
 H          2.9631889272       -1.8993964173        0.8505064902
 H          3.4388440857       -3.5767276769        1.0759872377
 C          5.0529200210       -2.2012857276        1.2771652767
 H          4.8532525553       -2.0333456276        2.3384599116
 H          5.7713909874       -3.0211281768        1.1997061179
 C          5.7093746608       -0.9474556725        0.7020010091
 H          6.0952205410       -1.1478947216       -0.2939595160
 H          6.5747091262       -0.7149771355        1.3301127779
 C          4.8357171769        0.3054076960        0.6998321708
 H          5.4475184989        1.1500516517        0.3588790453
 H          4.5548822902        0.5442645156        1.7313552028
 H          4.6386633192       -3.5059944346       -1.1310738505
 H          2.8843909473       -3.3329889700       -1.1974618978
 H          3.5430465704       -1.7316256021       -2.7222637077
 H          4.9992501623       -1.2742301458       -1.8479788881
 O          2.0127053805       -0.2284356602       -1.7935362157
 C          1.0838004636        0.7247616551       -1.4121156416
 O          0.0577136804        0.7354242079       -2.1199420537
 O          2.9269786682        2.1430706728        1.3528396260
 C          0.3900975705        2.5576633193        0.1952426310
 C         -0.6468703500        1.8275575154        1.0170737793
 C         -0.3441796088        1.5186099999        2.3416092289
 C         -1.2474665612        0.8388674454        3.1349369894
 C         -2.4702510506        0.4468972136        2.6194745370
 C         -2.7796055491        0.7394459531        1.2968004361
 C         -1.8709676481        1.4266299661        0.5007652717
 H         -2.1288993171        1.6286898309       -0.5260418461
 N         -4.0239940772        0.3544185233        0.7611799280
 S         -4.0506281626       -0.5694564208       -0.6373408223
 O         -3.6912224525        0.2390281382       -1.7712140245
 O         -5.3799241499       -1.1436498300       -0.6605234002
 C         -2.8480565398       -1.8478568303       -0.3254210054
 C         -1.5430426343       -1.6739525941       -0.7357298069
 C         -0.6026151959       -2.6327498456       -0.3904377989
 C         -0.9800570427       -3.7412897559        0.3503641276
 C         -2.2994348024       -3.9050415589        0.7464543556
 C         -3.2425661150       -2.9472878561        0.4131350108
 H         -4.2789713729       -3.0378406577        0.6961246130
 H         -2.5917449010       -4.7721459897        1.3165275730
 H         -0.2425852133       -4.4819998784        0.6168775584
 H          0.4214236740       -2.4967459478       -0.7032858582
 H         -1.2771203571       -0.8050953246       -1.3174399054
 H         -4.6436805478       -0.0581201736        1.4450406206
 H         -3.1832431447       -0.0794228140        3.2358505280
 H         -0.9998419233        0.6118984752        4.1606265747
 H          0.6163186866        1.8176999854        2.7367035014
 H          0.9644728618        3.1939432329        0.8831926138
 C         -0.1987037025        3.4355901972       -0.8864171414
 C         -0.8775296873        4.7115966354       -0.4904014346
 C          0.4476154547        4.7530825627       -1.1887220625
 H          0.4812659398        5.0857985135       -2.2153849194
 H          1.3191723048        5.0277120469       -0.6123132106
 H         -1.7581428049        5.0160788761       -1.0351578153
 H         -0.9041118663        4.9565803205        0.5608069739
 H         -0.6090964990        2.8857086668       -1.7237121724
