  62
        -98.93604229
 C         -1.0166507029       -1.7815328003       -0.0457854850
 C         -1.8054100263       -1.0687816431        0.8892293560
 C         -2.9410101578       -0.3128409807        0.3410272896
 C         -3.1677992148       -0.3436309824       -0.9847374952
 C         -4.2307682730        0.4369390626       -1.7048245157
 C         -3.7975699462        1.9100588198       -1.8500424045
 C         -4.6683710812        2.9019564325       -1.0782359035
 H         -4.1498801551        3.8631357976       -1.0810559077
 H         -5.6112179097        3.0360318402       -1.6126485134
 C         -4.9985954276        2.5154051414        0.3667965480
 H         -5.3822612057        3.4132217553        0.8559808255
 H         -5.8106961105        1.7869081791        0.3749275715
 C         -3.8309181973        1.9619745904        1.1937565248
 H         -2.8787108705        2.2998717768        0.7859764949
 H         -3.9104969843        2.3661130658        2.2047039714
 C         -3.8063742697        0.4278851650        1.3226417774
 H         -4.8274634883        0.0395663154        1.2743793653
 H         -3.4013050109        0.1643424200        2.3039535486
 H         -2.7609485744        1.9972490740       -1.5168078964
 H         -3.8117963741        2.1912551591       -2.9042911192
 H         -4.3606028685       -0.0194107008       -2.6864697220
 H         -5.1705055691        0.3660920341       -1.1615414936
 O         -2.3892346686       -1.0422594143       -1.8525580641
 C         -1.2961043696       -1.7783581145       -1.4121796452
 O         -0.6706966784       -2.3569795689       -2.3205043892
 O         -1.5698005533       -1.0680519295        2.1263538468
 C          0.1658671137       -2.5701799062        0.4726709233
 C          1.4952665212       -2.0357364882       -0.0072147197
 C          2.6660074146       -2.7607049870        0.1983731853
 C          3.8949179383       -2.2489971235       -0.1776939258
 C          3.9888519546       -1.0039707568       -0.7751745947
 C          2.8280881541       -0.2797554575       -0.9971174521
 C          1.5978145118       -0.7880540802       -0.6039862485
 H          0.7039795806       -0.2003317336       -0.7713401667
 N          2.9238070721        1.0066472848       -1.5866320423
 S          3.3448577111        2.2123342096       -0.4999209989
 O          3.3208573506        3.4516488527       -1.2423762612
 O          4.5971365585        1.8505106055        0.1112817424
 C          2.0327351879        2.1998771315        0.7072029098
 C          0.9787681230        3.0782888131        0.5536748101
 C         -0.0904032975        3.0020607818        1.4315631759
 C         -0.0985597110        2.0366085103        2.4266218747
 C          0.9660203727        1.1603303485        2.5658783259
 C          2.0462538078        1.2411421825        1.7014751659
 H          2.8954873576        0.5820013184        1.7846648868
 H          0.9441992285        0.4042598482        3.3337063484
 H         -0.9419914659        1.9550593663        3.0934889979
 H         -0.9144632211        3.6914291161        1.3349971009
 H          1.0220356231        3.8070063592       -0.2404280434
 H          2.0764580685        1.2833384233       -2.0634872481
 H          4.9367949731       -0.5788169219       -1.0607647950
 H          4.7908680266       -2.8248225713       -0.0037628827
 H          2.6100318106       -3.7326037982        0.6618144296
 H          0.1367027971       -2.4431207952        1.5660255557
 C          0.0099053107       -4.0474719343        0.1562646001
 C          0.3836454636       -5.0930869055        1.1628867947
 C         -1.0591533985       -4.8280242418        0.8594245498
 H         -1.6179033092       -5.5609218836        0.2971774032
 H         -1.6479191439       -4.3040494490        1.5984745834
 H          0.8202390806       -6.0148100497        0.8088742998
 H          0.7598556020       -4.7623956955        2.1194793871
 H          0.1751855601       -4.2667446222       -0.8923092853
