  62
        -98.94671080
 C         -1.9891731301       -1.4552643768       -0.0923036869
 C         -1.7197336250       -0.2164346509       -0.7197805486
 C         -2.8761198332        0.6703603420       -0.9091918746
 C         -4.0962268775        0.2534113147       -0.5246371794
 C         -5.3485635286        1.0760961065       -0.6086071895
 C         -5.5800656577        1.8682426456        0.6861530877
 C         -4.3499087177        2.6354048395        1.1714109680
 H         -4.6410304159        3.1774020303        2.0738114008
 H         -3.5760692279        1.9209770711        1.4615434806
 C         -3.7700438230        3.6212891189        0.1475414620
 H         -3.5473713398        4.5618114194        0.6556868033
 H         -4.5131401164        3.8367098624       -0.6210870953
 C         -2.4731991906        3.1556867575       -0.5174090844
 H         -2.0385869533        4.0087138851       -1.0456784228
 H         -1.7616749106        2.8430531253        0.2515173391
 C         -2.6195580667        2.0139454297       -1.5315430708
 H         -3.3991179185        2.2608011856       -2.2549988400
 H         -1.6711966325        1.9178701974       -2.0687825243
 H         -5.8782563269        1.1687521484        1.4706335757
 H         -6.4043824303        2.5645618687        0.5216973176
 H         -5.2744738454        1.7560925765       -1.4550113100
 H         -6.1926186219        0.4030255414       -0.7681845110
 O         -4.3213820500       -0.9617055831        0.0384391962
 C         -3.2760907562       -1.8362666034        0.2871410378
 O         -3.6140078558       -2.9007127226        0.8432009190
 H          1.8739377039       -2.1150148208       -0.2729313058
 C          1.5352446207       -1.6722023298        0.6481458915
 C          0.2021023647       -1.7343634307        1.0200921831
 C         -0.1834905396       -1.1429581059        2.2215729315
 C          0.7383850969       -0.4968151212        3.0211407605
 C          2.0658004837       -0.4184075028        2.6353226784
 C          2.4626364722       -1.0091967796        1.4427632395
 N          3.8097602905       -0.9686553783        1.0352712266
 S          4.2097085285       -0.3195060630       -0.4568074799
 O          3.5746804428       -1.0713960720       -1.5067033151
 O          5.6568668772       -0.3031581352       -0.4682990896
 C          3.6019123930        1.3569476526       -0.4008567941
 C          2.2589519328        1.6046218014       -0.6013717697
 C          1.8017678345        2.9092983324       -0.4912260176
 C          2.6823558539        3.9344179594       -0.1845381403
 C          4.0286347282        3.6666398036        0.0146228181
 C          4.4934649748        2.3661427286       -0.0892378664
 H          5.5314540933        2.1114259425        0.0527561466
 H          4.7138581554        4.4646734977        0.2514814713
 H          2.3170313330        4.9459838759       -0.1014754020
 H          0.7526856520        3.1054591489       -0.6468696830
 H          1.5812519542        0.8002749419       -0.8398487213
 H          4.4317892806       -0.5877129980        1.7349575887
 H          2.7881090716        0.0916167394        3.2547105237
 H          0.4220501930       -0.0440313732        3.9487445341
 H         -1.2227603063       -1.1988681763        2.5175687501
 C         -0.8504331520       -2.4209622717        0.1838089132
 H         -1.2812635820       -3.2393724354        0.7790823412
 C         -0.3188215430       -2.9936622230       -1.1130515693
 C          0.3362521719       -4.3408976540       -1.1253780882
 C         -1.0216980558       -4.1616799592       -1.7335061271
 H         -1.1155604972       -4.1957437388       -2.8086279919
 H         -1.8764330807       -4.5619697140       -1.2073795937
 H          1.1789985172       -4.4961250297       -1.7824000929
 H          0.4054434337       -4.8717339716       -0.1877695705
 H          0.0707883032       -2.2344878095       -1.7822539161
 O         -0.5730536783        0.1362360927       -1.0986851278
