  62
        -98.93283380
 C         -1.5773372503       -1.2618475403        0.6246412296
 C         -2.0322658606       -0.7451235895       -0.6128346400
 C         -2.9644933904        0.3949138807       -0.5341114190
 C         -3.2830222199        0.9101905700        0.6660287914
 C         -4.2729503096        2.0134796500        0.9098551924
 C         -5.7084983797        1.4571322504        0.8192194126
 C         -6.5277432500        2.0086010912       -0.3480329969
 H         -7.4239531902        1.3910409015       -0.4387026769
 H         -6.8508629497        3.0235206912       -0.1069827861
 C         -5.8153684804        2.0546461219       -1.7034238871
 H         -5.1610915403        2.9267775218       -1.7452356667
 H         -6.5860030406        2.2083030125       -2.4619193867
 C         -4.9993760508        0.8102899320       -2.0769094081
 H         -5.3744022908       -0.0676286683       -1.5501690985
 H         -5.1365254412        0.6225547027       -3.1438903081
 C         -3.4836014007        0.9411219415       -1.8357720785
 H         -2.9576754211        0.3728544619       -2.6089568490
 H         -3.1866742205        1.9885484715       -1.9397447179
 H         -5.6499607500        0.3693258704        0.7417059919
 H         -6.2430725994        1.6764518399        1.7446418229
 H         -4.1249978197        2.8109228504        0.1850887029
 H         -4.0817266792        2.4071379094        1.9082402026
 O         -2.7850337996        0.4203218692        1.8304446110
 C         -1.9432348698       -0.6779815510        1.8416183301
 O         -1.5909313896       -1.0389911518        2.9811551397
 O         -1.6891248211       -1.1919731889       -1.7388312903
 C         -0.6656214006       -2.4747212106        0.7401603586
 C          0.7820178195       -2.0811255408        0.5995591683
 C          1.7154634097       -2.4180775216        1.5721863378
 C          3.0414052198       -2.0434382917        1.4362177476
 C          3.4615402295       -1.3245036912        0.3317437079
 C          2.5325807693       -0.9733513004       -0.6399729615
 C          1.2046203293       -1.3496629502       -0.5023135114
 H          0.4867290091       -1.0794823496       -1.2627188910
 N          2.9425014491       -0.2260657298       -1.7579167612
 S          3.9299189695        1.0943375699       -1.4797263507
 O          3.6485809293        2.0194172206       -2.5545507101
 O          5.2994794794        0.6562642695       -1.3725773214
 C          3.3954792201        1.7681867090        0.0849638698
 C          2.0733580902        2.1435294792        0.2198702905
 C          1.6403971407        2.6465896685        1.4357124409
 C          2.5323824810        2.7664051677        2.4906251207
 C          3.8574613809        2.3898166475        2.3379791101
 C          4.2952833104        1.8833964682        1.1247539096
 H          5.3150708103        1.5736951681        0.9637819091
 H          4.5480055112        2.4852643669        3.1602539699
 H          2.1884819614        3.1545928972        3.4363154011
 H          0.6083385308        2.9352985587        1.5578589514
 H          1.4003355499        2.0408593398       -0.6170462394
 H          2.1883872389        0.0022479408       -2.3893417208
 H          4.4913672496       -1.0322304813        0.2049640478
 H          3.7560679599       -2.3138939823        2.1981376873
 H          1.3930072699       -2.9667642420        2.4447989776
 H         -0.8089931403       -2.8388691012        1.7693520484
 C         -1.0722130311       -3.6058162199       -0.1965515220
 C         -0.2535375415       -4.0644305394       -1.3622283425
 C         -0.3491853813       -4.9189653401       -0.1365089830
 H         -0.9245139115       -5.8312414800       -0.1799422034
 H          0.5218828289       -4.9745175007        0.4990995267
 H         -0.7823281919       -4.3680856887       -2.2530293926
 H          0.6815787785       -3.5664552194       -1.5640011025
 H         -2.1491957411       -3.6526052096       -0.3245340117
