  62
        -98.94754205
 C         -1.3282646559       -1.6333213710       -0.4964098440
 C         -1.1922374890       -0.3241708704       -1.0226505439
 C         -2.3816236593        0.5367907201       -0.9182754516
 C         -3.5080372003        0.0557685277       -0.3645609114
 C         -4.7789089095        0.8316104244       -0.1746282360
 C         -4.8248472304        1.5066140027        1.2024069369
 C         -3.5613522726        2.2956624849        1.5463476789
 H         -3.7252853627        2.7671642964        2.5181551012
 H         -2.7219821755        1.6056542930        1.6663132287
 C         -3.1815830197        3.3677207345        0.5160244775
 H         -4.0424614054        3.6039064848       -0.1112935395
 H         -2.9065697167        4.2803932424        1.0493126458
 C         -1.9896054481        2.9936859121       -0.3674995442
 H         -1.1727110491        2.6379566132        0.2671277931
 H         -1.6492278176        3.9011376251       -0.8755648770
 C         -2.2627390129        1.9381638589       -1.4474690948
 H         -3.1537781282        2.2146082140       -2.0157169540
 H         -1.4068060176        1.9280292556       -2.1286614817
 H         -5.6894933438        2.1725126360        1.2317409106
 H         -4.9636279718        0.7350266893        1.9632335322
 H         -4.8613580449        1.5800038511       -0.9603457583
 H         -5.6177536852        0.1379519096       -0.2562213066
 O         -3.6070276345       -1.2079568962        0.1209694659
 C         -2.5230402919       -2.0667902557        0.0863567585
 O         -2.7487006437       -3.1882826981        0.5866034006
 H          1.2432577232       -0.4435431330        0.0271784459
 C          1.3917012116       -1.1968492002        0.7822775918
 C          0.7232338783       -2.4077847221        0.6783396044
 C          0.9167047246       -3.3655325965        1.6667768936
 C          1.7532306862       -3.1075700449        2.7386705188
 C          2.3975257596       -1.8886266203        2.8527520478
 C          2.2087575673       -0.9247296735        1.8685002690
 N          2.8530745690        0.3182528368        1.9341514491
 S          2.0922521447        1.6854491916        1.3343142096
 O          2.7875344539        2.7863880334        1.9739065650
 O          0.6662000913        1.6446559813        1.5638347708
 C          2.4805385060        1.7216466261       -0.4027371508
 C          1.7448451274        2.5650370288       -1.2090386977
 C          2.0504627871        2.6416073823       -2.5577510610
 C          3.0851594092        1.8790031078       -3.0746016773
 C          3.8203852663        1.0429441750       -2.2494177073
 C          3.5206786478        0.9627472133       -0.8988959177
 H          4.0673462504        0.3117863566       -0.2367437749
 H          4.6229511391        0.4470281593       -2.6541624529
 H          3.3160678796        1.9334635802       -4.1270488456
 H          1.4746589581        3.2889371617       -3.2000435497
 H          0.9393104415        3.1326200396       -0.7723929937
 H          3.3574533216        0.5065437307        2.7877096897
 H          3.0371640724       -1.6808444060        3.6971047825
 H          1.8953780962       -3.8585687669        3.5010825601
 H          0.3922602706       -4.3076326125        1.6004478128
 C         -0.2030772574       -2.6588116107       -0.4870597234
 H         -0.6889866653       -3.6309562188       -0.3268129338
 C          0.5731203326       -2.7182885695       -1.7886020140
 C          1.3311818776       -3.9660468603       -2.1239269079
 C          0.0916666755       -3.6129545801       -2.8890237181
 H          0.1902509269       -3.2724634775       -3.9086420136
 H         -0.8028197784       -4.1914703971       -2.7074091643
 H          2.2850966930       -3.8705743501       -2.6188834517
 H          1.2770993764       -4.7880708217       -1.4261866318
 H          1.0081935060       -1.7695610105       -2.0728051777
 O         -0.1504241221        0.1241959982       -1.5700224318
