  62
        -98.94452978
 C         -1.8783872647       -0.8724775022        0.4331384752
 C         -2.1471215241        0.3059139006       -0.3046876407
 C         -3.4360202206        0.9549082969       -0.0285225313
 C         -4.2579801807        0.4558101129        0.9111866622
 C         -5.5875648510        1.0258229171        1.3239624484
 C         -6.7562033504        0.5971651710        0.4258623263
 C         -6.7822210920        1.2417135628       -0.9606896524
 H         -7.7597438774        1.0249268239       -1.3960662013
 H         -6.7052398729        2.3246751955       -0.8581629909
 C         -5.6930833808        0.7337803845       -1.9157677432
 H         -6.1351631991        0.5209283338       -2.8916965777
 H         -5.2863191302       -0.2065967340       -1.5368975357
 C         -4.5426467219        1.7142182756       -2.1439320970
 H         -3.8131758896        1.2387358835       -2.8044202446
 H         -4.9177361700        2.6091640537       -2.6455051402
 C         -3.8145157020        2.1417078844       -0.8629381464
 H         -2.8941837677        2.6580515973       -1.1469760523
 H         -4.4356598778        2.8284104163       -0.2883024475
 H         -7.6799434813        0.8640870493        0.9444005524
 H         -6.7361089419       -0.4901667237        0.3220329944
 H         -5.7798795259        0.6626616176        2.3358972529
 H         -5.5281652485        2.1143197482        1.3517572025
 O         -3.9482941228       -0.6548105649        1.6300074595
 C         -2.7773148615       -1.3523717645        1.3930865546
 O         -2.6463080620       -2.3760128494        2.0934279859
 H          0.5122125934        0.7123916527       -0.1169345170
 C          1.0317194267        0.1393780798        0.6367306690
 C          0.5651753847       -1.1241611057        0.9698819965
 C          1.2431888854       -1.8463757127        1.9443840049
 C          2.3601137077       -1.3160167656        2.5672714631
 C          2.8231598972       -0.0566823102        2.2308526121
 C          2.1458048152        0.6749910623        1.2643514357
 N          2.6219870580        1.9526084700        0.8985927617
 S          4.1857729182        1.9653957853        0.2916340439
 O          5.1205490300        1.9056671809        1.3873979667
 O          4.2723711085        3.1371815284       -0.5508602567
 C          4.2896132703        0.4722293001       -0.6790579426
 C          3.5434838985        0.3990170513       -1.8385511696
 C          3.5484985479       -0.7800012965       -2.5650905916
 C          4.2904686294       -1.8624847384       -2.1179601746
 C          5.0343652215       -1.7728097651       -0.9520435326
 C          5.0332532145       -0.5958087380       -0.2208971391
 H          5.5945058161       -0.4834989088        0.6920922730
 H          5.6097927150       -2.6167889919       -0.6077031487
 H          4.2890561026       -2.7815619468       -2.6826685874
 H          2.9692532506       -0.8500765020       -3.4720313117
 H          2.9786276040        1.2600657726       -2.1592020453
 H          2.0014113365        2.4268795351        0.2571277940
 H          3.6966150895        0.3705997189        2.6965898923
 H          2.8763817041       -1.8894662993        3.3218375953
 H          0.8834362916       -2.8270940410        2.2193754124
 C         -0.6240664669       -1.7137530422        0.2505283646
 H         -0.8500345470       -2.6818443927        0.7165772481
 C         -0.2798052583       -1.9521548956       -1.2085497956
 C          0.5791569189       -3.1245129221       -1.5693867119
 C         -0.8776904165       -3.1253314515       -1.9219448134
 H         -1.1617409469       -3.0087015585       -2.9570734318
 H         -1.5397799756       -3.7679092832       -1.3594052837
 H          0.9067596998       -3.7694035853       -0.7684291854
 H          1.3005397427       -3.0071876427       -2.3625724614
 H         -0.1510323268       -1.0384257453       -1.7730606169
 O         -1.3686154378        0.8181264992       -1.1544023254
