  62
        -98.94594061
 C         -1.5742671227       -1.5662388263       -0.2955145009
 C         -1.4335539660       -0.1985048975       -0.6346287403
 C         -2.6864581645        0.5631462148       -0.7433051721
 C         -3.8593413391       -0.0617571255       -0.5346400249
 C         -5.2006540250        0.6115077254       -0.5453461222
 C         -5.5850868543        1.1027795553        0.8577252846
 C         -4.4833230859        1.8958868837        1.5612428636
 H         -4.8795858561        2.2110904424        2.5290801871
 H         -3.6380985000        1.2331411925        1.7609486823
 C         -3.9902300595        3.1255214109        0.7857987503
 H         -4.7222929329        3.4005320351        0.0255426784
 H         -3.9112138385        3.9661868046        1.4783043448
 C         -2.6180985967        2.9554751896        0.1306121972
 H         -2.2773669405        3.9399745265       -0.1995786182
 H         -1.8999156530        2.5887649539        0.8681479936
 C         -2.5736122145        2.0218396056       -1.0849470230
 H         -3.3439363147        2.3116693286       -1.8022439537
 H         -1.5943092782        2.1385408330       -1.5575131057
 H         -6.4823996898        1.7187042199        0.7736224437
 H         -5.8271570430        0.2337190048        1.4740580450
 H         -5.1759032934        1.4483954843       -1.2404846136
 H         -5.9462984217       -0.1092996661       -0.8850232067
 O         -3.9536181054       -1.3829962046       -0.2329782408
 C         -2.8172395771       -2.1630080976       -0.0893170702
 O         -3.0423856793       -3.3509635941        0.2203130501
 O         -0.3249049552        0.3595037899       -0.8331277493
 C         -0.3329767855       -2.4238170528       -0.1186834228
 C          0.5210816108       -1.8066332093        0.9613641928
 C         -0.0138152002       -1.6920527677        2.2429813478
 C          0.7069411689       -1.0970237618        3.2593316369
 C          1.9723404002       -0.5907707425        3.0160027009
 C          2.5157789331       -0.7039937949        1.7424600561
 C          1.7954277666       -1.3183689615        0.7261370970
 H          2.2460308041       -1.3991428409       -0.2479444454
 N          3.8007439943       -0.2147973856        1.4729343228
 S          4.1986100973        0.4171450967       -0.0181557923
 O          4.3518120122       -0.6421929651       -0.9843984409
 O          5.3935694376        1.1943212705        0.2444191685
 C          2.8887301706        1.5244952631       -0.5064461687
 C          2.4802450117        1.5317820339       -1.8228791367
 C          1.5252546014        2.4500518835       -2.2250688073
 C          0.9937552069        3.3384185598       -1.3055653509
 C          1.4064845565        3.3121397839        0.0165695084
 C          2.3674163611        2.4017895879        0.4222060799
 H          2.7080523106        2.3667406457        1.4445622570
 H          0.9789779722        3.9960576036        0.7326412173
 H          0.2475757131        4.0519038108       -1.6195615560
 H          1.1925163848        2.4617594501       -3.2510849389
 H          2.9101304616        0.8146250167       -2.5043520287
 H          4.2372678186        0.2943564802        2.2268144848
 H          2.5353454086       -0.1166866007        3.8055263786
 H          0.2791144060       -1.0170746047        4.2473859295
 H         -1.0091922760       -2.0747065266        2.4262007938
 H         -0.6826086188       -3.4048500493        0.2330605756
 C          0.3857055724       -2.6046939863       -1.4381624534
 C          1.3133463904       -3.7652862315       -1.6302263362
 C         -0.0073354316       -3.7353447346       -2.3382778659
 H         -0.0186891590       -3.5660481353       -3.4045658384
 H         -0.7887889709       -4.3970242455       -1.9932864615
 H          2.2144781699       -3.6144118971       -2.2056447454
 H          1.4307413130       -4.4517424453       -0.8051657736
 H          0.6467601727       -1.6631093680       -1.9076771437
