  62
        -98.94471640
 C          1.8201795310        0.0870346505        0.2028257213
 C          2.8699864639        0.7714219484        0.8613950585
 C          4.1946606239        0.1478138857        0.7713430417
 C          4.3390154027       -1.0200025773        0.1188125589
 C          5.6210379262       -1.7917796579       -0.0393485121
 C          6.4951567261       -1.3147757905       -1.2073447306
 C          7.1981479787        0.0255817871       -0.9885853660
 H          7.7381018605        0.0006941449       -0.0415424010
 H          7.9392198758        0.1315799378       -1.7833917781
 C          6.2641528733        1.2434625595       -1.0194626534
 H          5.3173826575        0.9647780905       -1.4880263700
 H          6.7080549999        2.0268883867       -1.6378830960
 C          5.9762888283        1.8569146492        0.3508924958
 H          6.8995731234        2.2594120649        0.7733918854
 H          5.2782202358        2.6866322402        0.2141297399
 C          5.3604216870        0.8815826497        1.3626571556
 H          6.1147993060        0.1785231104        1.7149249011
 H          4.9927194169        1.4582847582        2.2148259351
 H          5.8765961966       -1.2600568840       -2.1062527354
 H          7.2585105200       -2.0779576949       -1.3758529354
 H          6.1937267482       -1.7468634923        0.8873804920
 H          5.3373675588       -2.8302344353       -0.2234538972
 O          3.2978707410       -1.6623319405       -0.4750874928
 C          2.0202565392       -1.1189839786       -0.4686110078
 O          1.1727946677       -1.7984910627       -1.0784210163
 H         -1.9243864692       -0.3680372084       -0.8112868343
 C         -1.6905954093       -0.7157963475        0.1807384400
 C         -0.5463425864       -0.2843083672        0.8318723768
 C         -0.2759020821       -0.7780883250        2.1068489772
 C         -1.1159453429       -1.6968964707        2.7027212285
 C         -2.2521724104       -2.1356966007        2.0449667050
 C         -2.5352421708       -1.6448282043        0.7765925108
 N         -3.6746868538       -2.0810092672        0.0902474635
 S         -4.4838928743       -1.1007224240       -0.9824478292
 O         -5.8113075588       -1.6749823122       -1.0555098713
 O         -3.7752076159       -1.0083075528       -2.2341856598
 C         -4.5680666435        0.5097673144       -0.2160996712
 C         -4.8726477177        0.6068697314        1.1273029347
 C         -4.9509654551        1.8626692501        1.7072650788
 C         -4.7322322363        2.9955613121        0.9385418860
 C         -4.4376379161        2.8825067883       -0.4109001103
 C         -4.3541380287        1.6284050193       -0.9945787762
 H         -4.1213710484        1.4929303352       -2.0384982194
 H         -4.2691444602        3.7635275163       -1.0093123694
 H         -4.7921311974        3.9717807245        1.3932811705
 H         -5.1812042101        1.9535303173        2.7565571606
 H         -5.0432156106       -0.2871539568        1.7040848449
 H         -4.2917883569       -2.6899987812        0.6052604196
 H         -2.9063487935       -2.8618901690        2.5028336529
 H         -0.8879260016       -2.0756430453        3.6875916487
 H          0.6143050370       -0.4374624331        2.6178052775
 C          0.4271458862        0.6918719563        0.2228336299
 H          0.5001258591        1.5648058372        0.8883742785
 C          0.0434753581        1.1692092982       -1.1610436710
 C         -0.9228506265        2.3021366797       -1.3258568594
 C          0.5316948611        2.5095867729       -1.6201326507
 H          0.8414608944        2.6217785172       -2.6484322238
 H          1.1195444565        3.0869633351       -0.9215896480
 H         -1.3307634322        2.7453964448       -0.4302059496
 H         -1.6120637314        2.2682959936       -2.1555815504
 H          0.0224434661        0.3677657897       -1.8919020056
 O          2.7057329674        1.8460845550        1.4981897997
