  62
        -98.93931773
 C         -0.5196829595       -1.5274386094        0.0434419802
 C         -1.2948634797       -0.7613917798        0.9440136504
 C         -2.3870869102        0.0203813097        0.3484781506
 C         -2.5446672705        0.0296273197       -0.9872326494
 C         -3.5797825410        0.7945145992       -1.7686447192
 C         -5.0450742207        0.3718552885       -1.5464941989
 C         -5.7830560009        1.1873133281       -0.4775016987
 H         -5.2982320014        2.1590166784       -0.3790234188
 H         -6.8008955411        1.3789221676       -0.8232713585
 C         -5.8981656903        0.5318003081        0.9020096813
 H         -6.2125284606        1.2997670579        1.6121002814
 H         -6.6832074900       -0.2272768323        0.8718662014
 C         -4.6314019199       -0.1421566513        1.4305003710
 H         -4.4790189196       -1.0936581313        0.9153700710
 H         -4.7888345396       -0.3849807814        2.4834021211
 C         -3.3470305003        0.6974978293        1.2825417208
 H         -2.8403243002        0.7750919395        2.2463654807
 H         -3.5844482809        1.7000073892        0.9327609308
 H         -5.0859341402       -0.6912454415       -1.3108978889
 H         -5.5620798510        0.5112827583       -2.4972270588
 H         -3.4741847514        1.8581104892       -1.5492893692
 H         -3.3209759811        0.6415757893       -2.8180348192
 O         -1.7239629103       -0.6620758899       -1.8247609295
 C         -0.7171124698       -1.4785702995       -1.3365224498
 O         -0.0788804997       -2.0890434191       -2.2145314799
 O         -1.0870847695       -0.7335720097        2.1876022903
 C          0.5893444310       -2.4117482289        0.5826246600
 C          1.9081415007       -2.0197597382       -0.0351805703
 C          2.8161831010       -2.9317588278       -0.5564475905
 C          3.9989713007       -2.4919225572       -1.1252782407
 C          4.3056394901       -1.1449111671       -1.1747566907
 C          3.4081277797       -0.2244640575       -0.6446789106
 C          2.2247935200       -0.6678706381       -0.0793176203
 H          1.5297497098        0.0490041516        0.3343221498
 N          3.6663449491        1.1527416526       -0.7000346306
 S          3.1707662588        2.1469804024        0.5454258195
 O          3.9448801482        3.3580852627        0.3673183194
 O          3.3071885294        1.5011684424        1.8304424695
 C          1.4627505186        2.5208131016        0.2120720199
 C          1.0549606282        2.7221079514       -1.0914148301
 C         -0.2571028220        3.0977877108       -1.3298377698
 C         -1.1283235219        3.2777449603       -0.2668768596
 C         -0.7064176315        3.0645410505        1.0353902303
 C          0.6017438987        2.6805123511        1.2793747300
 H          0.9677932090        2.4920283813        2.2762253100
 H         -1.3869088614        3.1943210802        1.8612606504
 H         -2.1425223321        3.5936567399       -0.4533537594
 H         -0.5936267323        3.2532809206       -2.3423522197
 H          1.7598552681        2.5780034517       -1.8934823902
 H          4.5711117689        1.4115731531       -1.0648646508
 H          5.2262673198       -0.8039530266       -1.6233130609
 H          4.6932711310       -3.2096959069       -1.5352400408
 H          2.5954456415       -3.9860198579       -0.5269493504
 H          0.6408374711       -2.1978833388        1.6611036900
 C          0.2378828417       -3.8723440490        0.3891799500
 C          0.7525292723       -4.9084993588        1.3419158299
 C         -0.6963324778       -4.5269129395        1.3605916402
 H         -1.4220653776       -5.2319723698        0.9837753903
 H         -1.0578809280       -3.9250873697        2.1817095203
 H          1.0199975827       -5.8796772187        0.9535780699
 H          1.3750751023       -4.5721219385        2.1573069998
 H          0.1394812816       -4.1396384991       -0.6571702600
