  62
        -98.93797998
 C         -2.6360713171       -1.3104353580        0.1295412928
 C         -2.6020495106       -0.2778668189       -0.8373144481
 C         -3.5335739690        0.8451905820       -0.6265544834
 C         -4.3531521539        0.8407216072        0.4378910817
 C         -5.4005465702        1.8554282277        0.8218674722
 C         -5.0266236118        3.3396117000        0.7015194235
 C         -3.5477097261        3.6621081914        0.9613882518
 H         -3.4840560622        4.4762591550        1.6857509827
 H         -3.0437684042        2.7982980286        1.3989506758
 C         -2.7998641498        4.1006780801       -0.3002562337
 H         -1.9020304640        4.6488351233       -0.0040512483
 H         -3.4343360721        4.7898354058       -0.8621679014
 C         -2.3491541000        2.9700641877       -1.2247222191
 H         -1.5338174424        2.4111674588       -0.7548784385
 H         -1.9393577731        3.4214338219       -2.1320481072
 C         -3.4431591597        1.9652716654       -1.6225133878
 H         -4.4010550569        2.4610861269       -1.7593117645
 H         -3.1486974555        1.5065146629       -2.5703145385
 H         -5.2992247502        3.7058949732       -0.2872511169
 H         -5.6469448932        3.8797865918        1.4185064611
 H         -6.2957937148        1.6629524294        0.2237119748
 H         -5.6509265062        1.6242091058        1.8598416997
 O         -4.3553947546       -0.1767990057        1.3441973123
 C         -3.4991301080       -1.2551710849        1.2268463723
 O         -3.6026376755       -2.0922767109        2.1453567968
 O         -1.8496829741       -0.2794590603       -1.8478070766
 C         -1.7050904392       -2.5130590180        0.0680389826
 C         -0.3147360388       -2.0488045173        0.4292776515
 C          0.1005090459       -2.0815681650        1.7571633982
 C          1.3422850083       -1.5932844758        2.1198518773
 C          2.1904864377       -1.0511177798        1.1698365370
 C          1.7768712500       -0.9963990840       -0.1539354430
 C          0.5409449893       -1.5113800403       -0.5203300781
 H          0.2231284017       -1.4455577649       -1.5489371982
 N          2.6203168076       -0.4227851092       -1.1231872537
 S          3.2403911659        1.1044511230       -0.7940019495
 O          2.3842377022        1.8484284827        0.1010826169
 O          3.4972310169        1.7008845249       -2.0868273013
 C          4.7988205134        0.7569083357       -0.0036782558
 C          5.0780763595        1.2907487626        1.2389917663
 C          6.3001170270        1.0095360651        1.8302923423
 C          7.2167786158        0.2049070216        1.1712717955
 C          6.9225084957       -0.3207552548       -0.0781067094
 C          5.7032232981       -0.0428311136       -0.6747253148
 H          5.4367019639       -0.4277503368       -1.6447674323
 H          7.6381254605       -0.9455845070       -0.5877237661
 H          8.1662028373       -0.0133313891        1.6341790311
 H          6.5305674112        1.4180095281        2.8011455678
 H          4.3322540527        1.9067384116        1.7160520522
 H          2.2216950581       -0.4428970581       -2.0516882345
 H          3.1546185629       -0.6572687504        1.4472850700
 H          1.6521192676       -1.6299625228        3.1532473984
 H         -0.5722124551       -2.4782734822        2.5047279747
 H         -2.0487983132       -3.1949051599        0.8568766782
 C         -1.7755669439       -3.2370449530       -1.2605485843
 C         -1.2038522671       -4.6178274939       -1.3669012041
 C         -2.6883042388       -4.4163548123       -1.4018633694
 H         -3.2074827345       -4.5553714132       -2.3383366275
 H         -3.2650527396       -4.7087198983       -0.5363960486
 H         -0.7013927810       -4.8991147100       -2.2796104146
 H         -0.7720556959       -5.0473778267       -0.4756714554
 H         -1.6826772290       -2.5828577261       -2.1174956614
