  62
        -98.93951065
 C         -1.1816630995       -1.4907564670        0.6497508673
 C         -2.2202685558       -1.3163843188       -0.2964546818
 C         -3.2124158826       -0.2677334567        0.0073077821
 C         -3.0849976697        0.4640413641        1.1261189072
 C         -3.9900079006        1.5515147371        1.6501307823
 C         -4.5484116275        2.5625505117        0.6391820383
 C         -3.6119762987        2.8958066922       -0.5313541468
 H         -3.5208240702        3.9804375646       -0.6123495664
 H         -2.6170852281        2.4918843995       -0.3407348770
 C         -4.1184008512        2.3641315009       -1.8739291546
 H         -3.6425038871        2.9290923776       -2.6787110024
 H         -5.1939128895        2.5418996470       -1.9413939811
 C         -3.8377596254        0.8846512351       -2.1322237293
 H         -4.3386797528        0.6033252090       -3.0615454332
 H         -2.7662227544        0.7310581012       -2.2863104256
 C         -4.2911820882       -0.0748991190       -1.0198031551
 H         -5.2218673648        0.2579292217       -0.5667906669
 H         -4.4559306984       -1.0572684944       -1.4704449726
 H         -4.7732652590        3.4729921088        1.1974626787
 H         -5.4953535932        2.1969813112        0.2446380309
 H         -4.8229472139        1.0739659541        2.1746856369
 H         -3.3992315322        2.0759611517        2.4054539152
 O         -2.0597063600        0.2703607906        2.0053983983
 C         -1.0967016509       -0.6994502909        1.7961478767
 O         -0.2297412843       -0.7577593635        2.6928361799
 H          2.1529180021       -1.1043574338        0.8385451722
 C          1.9795938898       -1.2973663288       -0.2096824498
 C          0.8744014851       -2.0438863030       -0.5989868832
 C          0.6758126464       -2.2896928390       -1.9529468757
 C          1.5667753392       -1.7962716346       -2.8889883071
 C          2.6638494211       -1.0494695389       -2.4989229648
 C          2.8719807464       -0.7977961979       -1.1472263630
 N          3.9920415598       -0.0650773190       -0.7265030382
 S          3.9037144860        0.9969783564        0.5589553228
 O          5.0817466435        1.8243499589        0.4080791356
 O          3.7962206885        0.2729807834        1.7989844258
 C          2.4491605084        1.9835954455        0.2601258904
 C          2.5079810578        2.9127031068       -0.7615106368
 C          1.3929225222        3.6875847672       -1.0314656320
 C          0.2407682746        3.5230804461       -0.2770147093
 C          0.1997099639        2.5895262537        0.7459775506
 C          1.3113330476        1.8068780926        1.0188777101
 H          1.2984797172        1.0700233095        1.8073813690
 H         -0.6909516914        2.4565178553        1.3404027406
 H         -0.6282701141        4.1279209599       -0.4831280592
 H          1.4230849390        4.4174060700       -1.8243040419
 H          3.4286092658        3.0260021914       -1.3106027334
 H          4.5577481806        0.3070887984       -1.4751048695
 H          3.3590258955       -0.6680400496       -3.2310859966
 H          1.4021835489       -1.9926345733       -3.9375561045
 H         -0.1909163097       -2.8459383943       -2.2692991532
 C         -0.0833412168       -2.5269681402        0.4641869992
 H          0.4648606109       -2.5514807079        1.4161323257
 C         -0.6289254238       -3.9133899968        0.1890743284
 C          0.2779778683       -5.0945258113        0.3514916629
 C         -0.8300727810       -4.8592185502        1.3327367143
 H         -1.6862852173       -5.5168029495        1.3131427996
 H         -0.5706867316       -4.5113408061        2.3225271310
 H          1.2903486326       -4.9042648056        0.6759263509
 H          0.1851982175       -5.9162011283       -0.3418467409
 H         -1.3602299706       -3.9424637128       -0.6075247263
 O         -2.3440811483       -2.0035016844       -1.3420721901
