  62
        -98.93678082
 C          2.1708188102        1.0106315092        0.3825641690
 C          2.4976535900        0.2004410989       -0.7311002208
 C          3.4470459202       -0.8946526810       -0.4733202707
 C          3.9018454605       -1.0897529405        0.7777642193
 C          4.9344404807       -2.1033071103        1.1821315993
 C          6.3400056606       -1.6021447703        0.7923980588
 C          7.0359013203       -2.4437302006       -0.2776226611
 H          7.9056938802       -1.8799457106       -0.6213982415
 H          7.4008692905       -3.3662881904        0.1786911791
 C          6.1796912401       -2.8274302411       -1.4884684708
 H          5.5388701802       -3.6723157511       -1.2319044303
 H          6.8648155399       -3.1805649813       -2.2620713108
 C          5.3073875598       -1.7105913714       -2.0762663009
 H          5.3230540195       -1.8047637917       -3.1638814009
 H          5.7226299498       -0.7315443712       -1.8363022113
 C          3.8294733299       -1.7567227513       -1.6444478705
 H          3.2112932197       -1.3930912917       -2.4706473504
 H          3.5383276801       -2.7922057213       -1.4477201601
 H          6.2508559404       -0.5706005804        0.4451604585
 H          6.9767979708       -1.5805112100        1.6780771286
 H          4.8616951410       -2.2289058499        2.2627041894
 H          4.7215293407       -3.0572629605        0.7048843997
 O          3.5224378407       -0.3194414102        1.8320078491
 C          2.6565275706        0.7487027697        1.6621500990
 O          2.3926559808        1.3709209200        2.7123186089
 H         -0.1599212795        0.0998767692        1.0846229500
 C         -0.6973275898        0.6197364389        0.2993346399
 C         -0.1145332600        1.7334347288       -0.2934268906
 C         -0.8238816203        2.3998574284       -1.2838367306
 C         -2.0720919704        1.9487643082       -1.6775808201
 C         -2.6410109302        0.8325541283       -1.0932978096
 C         -1.9454914898        0.1646700587       -0.0938685996
 N         -2.5261465796       -0.9708073312        0.5106691010
 S         -3.9579080094       -0.7014152610        1.3568794913
 O         -4.0082039693        0.6432250592        1.8847729808
 O         -4.0385543390       -1.7754822307        2.3229314916
 C         -5.2313844297       -0.9211938615        0.1325639017
 C         -6.0472473599        0.1402488883       -0.2072186984
 C         -7.0356264101       -0.0532827021       -1.1597768681
 C         -7.1901333901       -1.2978642623       -1.7511842177
 C         -6.3638832300       -2.3541755921       -1.3968117875
 C         -5.3740294297       -2.1677096917       -0.4450655179
 H         -4.7149793996       -2.9619412816       -0.1362513678
 H         -6.4876439400       -3.3206141823       -1.8583571572
 H         -7.9597684603       -1.4459713426       -2.4921634974
 H         -7.6790920602        0.7663663778       -1.4363105582
 H         -5.8869545298        1.0899108785        0.2775230712
 H         -1.8808148494       -1.4734035709        1.1039843210
 H         -3.6085980902        0.4729725481       -1.4030108892
 H         -2.6080587607        2.4736579378       -2.4533813902
 H         -0.3981163205        3.2731530083       -1.7497966810
 C          1.2339088801        2.1914496791        0.2088397689
 H          1.0876046303        2.6125658894        1.2152539688
 C          1.8813361898        3.2425760588       -0.6693744816
 C          1.5677258997        4.6940003789       -0.4697228120
 C          2.9055664298        4.1539195191       -0.0652205722
 H          3.7710767497        4.4200051090       -0.6531625325
 H          3.1140581701        4.0345273695        0.9884980078
 H          0.8695432599        4.9520781791        0.3123525881
 H          1.5178343494        5.3353572386       -1.3366694422
 H          2.0594432595        2.8880333585       -1.6779481816
 O          2.0231888997        0.3819167784       -1.8820386007
