  62
        -98.94405929
 C         -2.5507332042       -1.1446735994        0.2500494011
 C         -2.7922091801       -0.4061179392       -0.9336763895
 C         -3.7090449744        0.7354222275       -0.7983570169
 C         -4.2478561171        1.0109152608        0.4034432778
 C         -5.1556087231        2.1711013217        0.6910887048
 C         -4.3589502852        3.4035656315        1.1416274290
 C         -3.1767251404        3.7409282460        0.2328791404
 H         -2.7077032671        4.6434366379        0.6310856154
 H         -2.4365106301        2.9396391635        0.2980289743
 C         -3.5508743692        3.9645570807       -1.2390786237
 H         -4.6211950606        4.1556442068       -1.3235717223
 H         -3.0328243971        4.8554764963       -1.5999633519
 C         -3.1657723949        2.8154959184       -2.1728436692
 H         -3.2721397810        3.1651224940       -3.2030387590
 H         -2.1145482324        2.5561415726       -2.0223845673
 C         -4.0010479353        1.5362725726       -2.0360923160
 H         -3.7498957067        0.8851465266       -2.8783674385
 H         -5.0632846780        1.7817260111       -2.0949072667
 H         -5.0388925602        4.2560417322        1.1883655049
 H         -3.9756740178        3.2196042707        2.1482376733
 H         -5.7313329727        2.4044161812       -0.2023627123
 H         -5.8410995432        1.8813944988        1.4892804133
 O         -3.9833052226        0.2833684655        1.5199106332
 C         -3.1236150234       -0.8024145163        1.4738065161
 O         -2.9485938261       -1.3682769843        2.5733569002
 O         -2.2716940296       -0.6840574417       -2.0444773118
 C         -1.6230917980       -2.3450248813        0.2132230844
 C         -0.2448829578       -1.9343106284       -0.2474712093
 C          0.5010481239       -2.6636071839       -1.1637684226
 C          1.7715386189       -2.2479003489       -1.5238667167
 C          2.3266600985       -1.1055196417       -0.9783366767
 C          1.5946745603       -0.3746155606       -0.0515440395
 C          0.3241060136       -0.7942871186        0.3079014279
 H         -0.2427074357       -0.2253590774        1.0366307322
 N          2.1609573028        0.7880295255        0.5127901635
 S          3.5647504206        0.5596447050        1.4159380468
 O          3.5885359256       -0.7520086207        2.0227158354
 O          3.6235680338        1.6873579764        2.3203618786
 C          4.8765698298        0.7007307028        0.2211164248
 C          5.0206598221        1.8977126021       -0.4528876811
 C          6.0411042183        2.0228453041       -1.3820870879
 C          6.8963510459        0.9565130995       -1.6177990210
 C          6.7403346004       -0.2372748581       -0.9299890055
 C          5.7209586605       -0.3697057194        0.0000698119
 H          5.5571233740       -1.2792578406        0.5553833124
 H          7.4065262006       -1.0646508374       -1.1142321945
 H          7.6895999733        1.0567546781       -2.3416795936
 H          6.1659834487        2.9496395452       -1.9185230609
 H          4.3382248429        2.7023843723       -0.2354223029
 H          1.5002926893        1.3241940757        1.0578204691
 H          3.3118534716       -0.7739195500       -1.2626710194
 H          2.3360623180       -2.8215161207       -2.2428470035
 H          0.0862008255       -3.5577157998       -1.5989646062
 H         -1.5366097264       -2.6944540381        1.2533839708
 C         -2.2360085989       -3.4507452052       -0.6214347545
 C         -1.9405930687       -4.8862192722       -0.3096648158
 C         -3.2925285879       -4.3161606140       -0.0056985803
 H         -4.1312996340       -4.6188177090       -0.6142711127
 H         -3.5493088325       -4.1247484830        1.0264703342
 H         -1.8541912506       -5.5849942015       -1.1280120212
 H         -1.2808094215       -5.0926292075        0.5196834323
 H         -2.3648274172       -3.1648964076       -1.6588999089
