  62
        -98.93830915
 C         -2.1844549906       -0.8691205603       -0.0708378203
 C         -2.9352084705       -0.2215045105        0.9354746999
 C         -3.7615206204        0.9218674097        0.5104499303
 C         -3.7479848404        1.3019393101       -0.7811859896
 C         -4.4466169502        2.4451818704       -1.4874422192
 C         -5.6240965801        3.1653071304       -0.8347881089
 C         -6.8764416302        2.3096315505       -0.6507178592
 H         -7.6162379401        2.9020382204       -0.1078566089
 H         -7.2907417403        2.0815439609       -1.6359426192
 C         -6.6682179004        0.9854065202        0.0800552104
 H         -6.0245760405        0.3344549603       -0.5152097898
 H         -7.6401378304        0.4908105603        0.1586675603
 C         -6.0906079503        1.0994962197        1.4897727304
 H         -6.6978339702        1.7868566496        2.0818426407
 H         -6.1574164004        0.1111569696        1.9524760901
 C         -4.6202066602        1.5481546095        1.5710764905
 H         -4.5337189201        2.6320874795        1.5444810809
 H         -4.2169224403        1.2116931492        2.5309110304
 H         -5.3221139100        3.6034503201        0.1119691612
 H         -5.8858886800        3.9945123906       -1.4977351787
 H         -4.7653203603        2.0434478608       -2.4543714293
 H         -3.6666288101        3.1839403704       -1.7031261890
 O         -2.9763833405        0.6659865703       -1.7111233098
 C         -2.1903162506       -0.4298632499       -1.3934861302
 O         -1.5596823507       -0.9060091197       -2.3549399403
 O         -2.9095778805       -0.5747936109        2.1466334898
 C         -1.3349072308       -2.0709118505        0.2952023293
 C          0.1174203093       -1.8221992506       -0.0320794707
 C          0.9373753691       -2.7769451305       -0.6190688210
 C          2.2686447192       -2.4969891106       -0.8754356909
 C          2.8111038993       -1.2671777508       -0.5534056906
 C          2.0042506895       -0.3086486309        0.0461112697
 C          0.6734857894       -0.5947388808        0.3078269897
 H          0.0476484796        0.1538428792        0.7796724299
 N          2.5465900496        0.9487082490        0.3698210101
 S          3.9363054397        0.9823845685        1.3146981901
 O          4.0134557396       -0.1724564218        2.1793328897
 O          3.9187939599        2.2740324283        1.9663018205
 C          5.2654185896        0.9480960087        0.1308035400
 C          5.3187327797        1.9502367790       -0.8180796197
 C          6.3509154797        1.9416592091       -1.7425585197
 C          7.3082137796        0.9387663890       -1.7009582900
 C          7.2429223495       -0.0578715813       -0.7393333103
 C          6.2122797695       -0.0557967315        0.1877938997
 H          6.1176703494       -0.8123343817        0.9503534695
 H          7.9884270194       -0.8361031014       -0.7083390306
 H          8.1100554096        0.9346309391       -2.4222986801
 H          6.4051736598        2.7153043694       -2.4914939595
 H          4.5577085798        2.7127610591       -0.8133171594
 H          1.8649914997        1.6014155589        0.7291576403
 H          3.8445331593       -1.0421791309       -0.7600742005
 H          2.8915051390       -3.2471973706       -1.3380310012
 H          0.5332359890       -3.7410896804       -0.8799360313
 H         -1.4220935807       -2.1694404908        1.3882829893
 C         -1.8950953909       -3.3212636702       -0.3512612211
 C         -1.7454220511       -4.6544724805        0.3168110585
 C         -3.0848940010       -3.9846356303        0.2729516788
 H         -3.8475588511       -4.3919066400       -0.3736848813
 H         -3.4716783009       -3.5509415305        1.1838052989
 H         -1.5905838312       -5.5262342003       -0.3008949318
 H         -1.2256101411       -4.6847539708        1.2625605485
 H         -1.8553169310       -3.2805498899       -1.4341093311
