  62
        -98.94488248
 C         -1.9179812246       -0.1690663279        0.0518554927
 C         -2.9347109723       -1.0424825085        0.5070699453
 C         -4.2473065999       -0.4301906071        0.7493224052
 C         -4.4009625558        0.8924830702        0.5550607486
 C         -5.6949900800        1.6361425349        0.7126841502
 C         -6.4683607403        1.6908951425       -0.6122615068
 C         -6.6040516629        0.3347789762       -1.3048123703
 H         -7.1931503035        0.4902714915       -2.2112814409
 H         -5.6146372596       -0.0049582177       -1.6196442950
 C         -7.2640622570       -0.7532556593       -0.4462387516
 H         -7.8038987157       -0.2940962224        0.3826930263
 H         -7.9979972825       -1.2834275646       -1.0568169057
 C         -6.2960721169       -1.8046004737        0.0995982363
 H         -5.6870557288       -2.2002522480       -0.7171166084
 H         -6.8854416669       -2.6338329292        0.4997992557
 C         -5.3565139885       -1.3307833716        1.2156389003
 H         -5.9368099148       -0.8507813791        2.0061735861
 H         -4.8677586699       -2.2147024745        1.6357256694
 H         -7.4601564633        2.1024885737       -0.4163406975
 H         -5.9460910113        2.3704860121       -1.2897682108
 H         -6.2974826674        1.1494682103        1.4771818849
 H         -5.4692700677        2.6544300428        1.0337438429
 O         -3.3939688475        1.7041280163        0.1424916408
 C         -2.1308649036        1.1973661779       -0.1296195625
 O         -1.3086498306        2.0502267688       -0.5138029462
 H          1.7420222366        0.6791720023       -0.9479035237
 C          1.5817164844        0.6130706893        0.1144936829
 C          0.4859087877       -0.0608748901        0.6280035788
 C          0.3138118733       -0.0997865189        2.0104608945
 C          1.2043944040        0.5354584070        2.8522165837
 C          2.2944707567        1.2142658132        2.3346843551
 C          2.4793980277        1.2552763229        0.9588406666
 N          3.5670835444        1.9529813208        0.4092992217
 S          4.4853137771        1.2751274495       -0.8107210913
 O          5.6897461643        2.0751486129       -0.8430383615
 O          3.7312814677        1.2084522550       -2.0356739236
 C          4.8613210332       -0.3638941563       -0.2173018286
 C          4.0872289504       -1.4328102521       -0.6198847311
 C          4.3508798861       -2.6860578921       -0.0894818600
 C          5.3764595557       -2.8474577633        0.8289180117
 C          6.1482345378       -1.7635982282        1.2199820133
 C          5.8872614510       -0.5079702370        0.6967228963
 H          6.4696821020        0.3583333424        0.9656543756
 H          6.9483219595       -1.8935624519        1.9307809173
 H          5.5763991199       -3.8244848636        1.2397612088
 H          3.7530130610       -3.5301862687       -0.3942845460
 H          3.3013106207       -1.2695481494       -1.3383279197
 H          4.1581573143        2.4050718087        1.0914610979
 H          2.9875025329        1.7201368443        2.9896417170
 H          1.0524500981        0.5024155773        3.9205146344
 H         -0.5402684348       -0.6271701925        2.4131039003
 C         -0.5416989249       -0.7413623398       -0.2407674620
 H         -0.5996358523       -1.7986383328        0.0574258699
 C         -0.2435048659       -0.6705728476       -1.7228084654
 C          0.6658908350       -1.6787535006       -2.3566302077
 C         -0.8073574987       -1.7229348368       -2.6281823328
 H         -1.1645368841       -1.4266326262       -3.6031213428
 H         -1.3875367579       -2.5112987179       -2.1710348891
 H          1.3265202379       -1.3515788852       -3.1462241360
 H          1.0781006670       -2.4463351779       -1.7189271542
 H         -0.2212251886        0.3459393896       -2.1004182403
 O         -2.7509076876       -2.2735220521        0.7053858134
