  62
        -98.93941627
 C          2.6861508401        1.1656502700       -0.0419676906
 C          2.8466417598        0.0688123597       -0.9224688103
 C          4.2032839898       -0.4873772804       -1.0000625602
 C          5.1988469299        0.0726135797       -0.2887708705
 C          6.6399009299       -0.3606005705       -0.2890869206
 C          6.9447745599       -1.5176232702        0.6720858198
 C          6.4133644997       -2.8830906703        0.2345432103
 H          6.7380944595       -3.0879983806       -0.7860224797
 H          6.8788841997       -3.6298931601        0.8808010305
 C          4.8881516197       -3.0291760201        0.3308062505
 H          4.4860380798       -2.2421049098        0.9730642103
 H          4.6424561996       -3.9826205099        0.8038351909
 C          4.1601159095       -2.9900041104       -1.0129724594
 H          3.0860646595       -3.0611452503       -0.8222369393
 H          4.4542153594       -3.8533559807       -1.6139149692
 C          4.4118042595       -1.7167925607       -1.8314941599
 H          5.4182303095       -1.7300152410       -2.2492259200
 H          3.6904848894       -1.6886966109       -2.6517057398
 H          8.0311139599       -1.5865376302        0.7646293297
 H          6.5429086100       -1.2685705798        1.6570216697
 H          6.9389117197       -0.6375569208       -1.3003205605
 H          7.2248940400        0.5077688796        0.0215577591
 O          5.0064613401        1.1461383900        0.5243414191
 C          3.7474212402        1.7008955202        0.6866606991
 O          3.7033231104        2.6530099404        1.4929220888
 O          1.9109136697       -0.4170997304       -1.6090911400
 C          1.3198813101        1.8028220302        0.1245821394
 C          0.2997563301        0.7736749105        0.5490443798
 C          0.6261497801       -0.1369767892        1.5501183201
 C         -0.2891194599       -1.0794522690        1.9772448405
 C         -1.5569222500       -1.1325028391        1.4240545007
 C         -1.9013179500       -0.2157786793        0.4419824204
 C         -0.9766676900        0.7278859104        0.0109730800
 H         -1.2619728500        1.4305949202       -0.7571743002
 N         -3.1965018701       -0.2551780794       -0.1248578694
 S         -4.4919563299        0.1109847311        0.8983785506
 O         -4.5851879398        1.5452181911        1.0811821402
 O         -4.3812596999       -0.6768546986        2.0979069309
 C         -5.8630136301       -0.4637367891       -0.0838861790
 C         -6.6936298401        0.4465132608       -0.7074879592
 C         -7.7431972902       -0.0243230094       -1.4811721889
 C         -7.9404352004       -1.3896499494       -1.6189813885
 C         -7.0968987604       -2.2914210693       -0.9867278283
 C         -6.0469510903       -1.8271164891       -0.2112463785
 H         -5.3713111503       -2.4908983690        0.3021902916
 H         -7.2546569805       -3.3523751293       -1.0956985479
 H         -8.7576647505       -1.7536886695       -2.2214992482
 H         -8.4016412402        0.6741734105       -1.9721592891
 H         -6.5068478900        1.4990799508       -0.5672327296
 H         -3.2600182901        0.3588199103       -0.9276809996
 H         -2.2812195300       -1.8564037489        1.7580356710
 H         -0.0129965899       -1.7833742288        2.7482685207
 H          1.6149082902       -0.0977614292        1.9881482400
 H          1.4200558003        2.5339292205        0.9410779691
 C          0.9438167001        2.5412928798       -1.1442889508
 C          0.0726931502        3.7594322700       -1.0864282811
 C          1.5336517302        3.8961149697       -1.3905514813
 H          1.8306099501        4.1552950993       -2.3956322215
 H          2.1825248603        4.2982367799       -0.6259703216
 H         -0.6323634899        3.9294724398       -1.8866462611
 H         -0.2764173397        4.0811263003       -0.1164505212
 H          0.8432711599        1.8767371696       -1.9951729706
