  62
        -98.93771456
 C          1.8199236399        1.1223378607       -0.0838701288
 C          2.3531254297       -0.0008154290       -0.7583230295
 C          3.8222069797       -0.1175793694       -0.7635215894
 C          4.5634671898        0.8229905200       -0.1534691086
 C          6.0660886298        0.9222327995       -0.0693521283
 C          6.8442436394       -0.3656888409        0.2361685909
 C          6.1107492990       -1.3728032713        1.1340132301
 H          6.7723209588       -1.6656985820        1.9514094300
 H          5.2296273591       -0.9072108714        1.5786979503
 C          5.6947098288       -2.6441948507        0.3899709992
 H          5.5291638884       -3.4402912811        1.1198497686
 H          6.5192005888       -2.9581902905       -0.2539672509
 C          4.4222746689       -2.5287760697       -0.4488162809
 H          3.5500917689       -2.4473298400        0.2058367390
 H          4.3083708088       -3.4552592293       -1.0169871316
 C          4.3798932894       -1.3435827091       -1.4270115901
 H          5.3580607095       -1.1568724690       -1.8637943698
 H          3.6814775795       -1.5964532683       -2.2295528304
 H          7.1163037694       -0.8569100803       -0.6970740594
 H          7.7771579894       -0.0639755715        0.7152755013
 H          6.4318809601        1.3465278501       -1.0088004980
 H          6.2580426699        1.6602795090        0.7130142822
 O          4.0046805300        1.8926108897        0.4810222120
 C          2.6330357401        2.0673335301        0.5389186819
 O          2.2676989302        3.0815060397        1.1671426626
 O          1.6428721995       -0.8637562984       -1.3369105602
 C          0.3165708499        1.3292358811       -0.0260587589
 C         -0.3423726205        0.1208328809        0.5916228301
 C          0.1412389192       -0.3473931001        1.8118370199
 C         -0.4079611712       -1.4637454204        2.4097628190
 C         -1.4628380713       -2.1307575597        1.8110539084
 C         -1.9601819910       -1.6663302887        0.6001865087
 C         -1.4072734806       -0.5405023884        0.0015284895
 H         -1.8018168403       -0.2147822877       -0.9461140603
 N         -3.0244981111       -2.3262653980       -0.0278235720
 S         -4.1708473407       -1.4766420471       -0.8874189916
 O         -5.3321173909       -2.3412665768       -0.8862896923
 O         -3.6684818404       -1.1076140063       -2.1866264312
 C         -4.5079815004       -0.0100156376        0.0729781194
 C         -4.5501671400        1.2142231928       -0.5608305498
 C         -4.8235940298        2.3499060624        0.1848884310
 C         -5.0471922901        2.2415665015        1.5482712409
 C         -5.0073390005        1.0031809811        2.1708252400
 C         -4.7384942207       -0.1353169885        1.4289209593
 H         -4.7087405810       -1.1097812888        1.8880768286
 H         -5.1836213407        0.9220247004        3.2313226199
 H         -5.2549607999        3.1267468012        2.1285721014
 H         -4.8576450895        3.3124272127       -0.3001650884
 H         -4.3632963398        1.2538964335       -1.6215712997
 H         -3.4227326614       -3.0960306982        0.4883589375
 H         -1.8883929216       -3.0098489499        2.2704897278
 H         -0.0146539515       -1.8189294411        3.3503952589
 H          0.9672128893        0.1736194893        2.2774622804
 H          0.1535571201        2.1876492307        0.6419711616
 C         -0.2080228997        1.6781723722       -1.4025957188
 C         -1.4277881995        2.5343334226       -1.5524947984
 C         -0.0767504693        3.0902542025       -1.8860149678
 H          0.1723522409        3.2599581331       -2.9228171676
 H          0.3665904908        3.8049609119       -1.2077436372
 H         -2.1056233394        2.3189563634       -2.3646926886
 H         -1.9107318195        2.8778905521       -0.6503101482
 H         -0.0473220499        0.8857574426       -2.1251672193
