  62
        -98.93803984
 C         -1.9498514069        1.0770116655        0.2186931641
 C         -2.3248761948       -0.2303033746        0.6176724472
 C         -3.5081927372       -0.7890609417       -0.0638828254
 C         -4.1308458183       -0.0764123651       -1.0182154262
 C         -5.3671714917       -0.5101813203       -1.7504069755
 C         -6.6361908281       -0.0291442443       -1.0329994596
 C         -6.6518772762       -0.3347928347        0.4646751296
 H         -5.8643199856        0.2424868368        0.9543978505
 H         -7.6054464795        0.0219246741        0.8598376674
 C         -6.4786453660       -1.8202123515        0.8108344132
 H         -7.2082733365       -2.0889125290        1.5776351571
 H         -6.6903168066       -2.4325606457       -0.0664330952
 C         -5.0991440438       -2.1865272537        1.3617773349
 H         -5.1540379670       -3.1988158636        1.7712877931
 H         -4.8423402242       -1.5150900347        2.1850922845
 C         -3.9480878439       -2.1662138088        0.3479012319
 H         -3.0775644610       -2.6287780528        0.8232886275
 H         -4.2169496050       -2.7628511334       -0.5264830028
 H         -7.5001573520       -0.4950646051       -1.5103668504
 H         -6.7177737735        1.0524604186       -1.1624606523
 H         -5.3722987156       -1.5953593228       -1.8326371907
 H         -5.3410215254       -0.0790482938       -2.7525988695
 O         -3.7234774084        1.1625298400       -1.3954789293
 C         -2.6360865267        1.7642258489       -0.7873723969
 O         -2.3795233807        2.9068994216       -1.2171627590
 O         -1.7322781723       -0.9118088905        1.4914388940
 C         -0.7602592300        1.8338729274        0.7897605518
 C          0.4446394719        1.6487561945       -0.0976362908
 C          1.1544827197        2.7535785604       -0.5558245055
 C          2.2424778781        2.5992850009       -1.3957295638
 C          2.6567795454        1.3352211047       -1.7737716427
 C          1.9583187675        0.2237471784       -1.3169986802
 C          0.8526054288        0.3816719701       -0.4940782249
 H          0.3145396359       -0.4929087887       -0.1606323236
 N          2.3742462098       -1.0846811427       -1.6572081672
 S          3.1056320510       -1.9387190278       -0.4128163246
 O          3.5663077016       -3.1735667447       -1.0074954610
 O          2.1994331295       -2.0469537102        0.6980988776
 C          4.5072604379       -0.9255100565        0.0319269884
 C          4.3163105272        0.1376695425        0.8921876847
 C          5.3875609470        0.9710196917        1.1733838007
 C          6.6227698645        0.7299925290        0.5914675514
 C          6.7987374903       -0.3427285137       -0.2695745780
 C          5.7304706210       -1.1766509083       -0.5585596196
 H          5.8209384255       -2.0244855602       -1.2184292686
 H          7.7612721276       -0.5299117203       -0.7177122076
 H          7.4531852644        1.3817299096        0.8125313119
 H          5.2506139634        1.8044106898        1.8433904489
 H          3.3436833963        0.2904614869        1.3315034690
 H          2.9795311041       -1.1130296383       -2.4671108807
 H          3.5090986491        1.2058405308       -2.4241235185
 H          2.7748099891        3.4673285656       -1.7524701229
 H          0.8302456659        3.7416792966       -0.2646587830
 H         -1.0411452784        2.8984231640        0.7290242215
 C         -0.4725785565        1.5431397647        2.2544885342
 C          0.5652995970        0.5778719568        2.7315819303
 C          0.7946924792        2.0501649403        2.8798715916
 H          0.7475294532        2.4824316498        3.8679054748
 H          1.5172421437        2.5151401903        2.2255880202
 H          0.3297521521       -0.0041234579        3.6100183189
 H          1.1283207167        0.0166122069        2.0022939911
 H         -1.3744645617        1.6060322146        2.8556466780
