  62
        -98.93808201
 C         -1.1920681311       -1.0594406372        0.1900396715
 C         -1.6977322817        0.0059288353        0.9732710253
 C         -2.7592435888        0.8324663577        0.3747881871
 C         -3.1437545525        0.5919902501       -0.8920287009
 C         -4.1502003788        1.2956540090       -1.7784237881
 C         -5.1759057713        2.2585621392       -1.1855611531
 C         -6.2186528392        1.6064689782       -0.2783423021
 H         -6.8351004864        2.3973357026        0.1545311648
 H         -6.8675474715        0.9764151584       -0.8918391434
 C         -5.6619305524        0.7382141251        0.8470996567
 H         -6.5089410507        0.3435138564        1.4146560845
 H         -5.1332269717       -0.1173650151        0.4217490928
 C         -4.7377675641        1.4550854283        1.8296918573
 H         -4.5537524625        0.7735326693        2.6644610435
 H         -5.2381907245        2.3408463830        2.2254058998
 C         -3.3685004366        1.8757105906        1.2663748255
 H         -2.6796124422        2.0002466363        2.1071392920
 H         -3.4260740004        2.8322188567        0.7514308349
 H         -5.7065339495        2.7048410900       -2.0311661930
 H         -4.6734565996        3.0701925469       -0.6673028625
 H         -3.5569232644        1.8376233601       -2.5239341343
 H         -4.6750247849        0.5022789450       -2.3204830347
 O         -2.5695152103       -0.3949026489       -1.6393605928
 C         -1.5868095447       -1.2349472056       -1.1355628837
 O         -1.1671718358       -2.0673451912       -1.9607758095
 O         -1.2687283092        0.2676590600        2.1296156691
 C         -0.0939207900       -1.9171514736        0.7900419541
 C          1.0981100330       -1.9611529916       -0.1338251151
 C          1.7959051208       -3.1167398256       -0.4584369122
 C          2.9014458828       -3.0531617412       -1.2899682889
 C          3.3480810174       -1.8454810023       -1.7938104840
 C          2.6533242019       -0.6830261559       -1.4772868953
 C          1.5404234768       -0.7534337362       -0.6577379796
 H          0.9857153057        0.1481914041       -0.4486831741
 N          3.0614642832        0.5661299412       -1.9661677323
 S          2.8022440343        1.9426081788       -1.0579784057
 O          1.4164840294        2.3380166878       -1.1204406883
 O          3.7520609148        2.8988994012       -1.5867454734
 C          3.2626920188        1.4954635369        0.6074127422
 C          2.3148802637        1.4261551355        1.6074771650
 C          2.7069300647        1.0294116651        2.8765120239
 C          4.0334431390        0.7137292129        3.1239434005
 C          4.9772680301        0.7993460319        2.1113089525
 C          4.5901824198        1.1907508991        0.8405809324
 H          5.2963946697        1.2777386101        0.0310522672
 H          6.0095290656        0.5587530068        2.3077939212
 H          4.3320090926        0.4017996713        4.1123094390
 H          1.9652636652        0.9623178600        3.6567139660
 H          1.2868451073        1.6716036292        1.3894139066
 H          3.9484997290        0.5766609870       -2.4464240168
 H          4.2125803102       -1.8002212672       -2.4379677274
 H          3.4283707378       -3.9600998074       -1.5447320597
 H          1.4649513528       -4.0699311188       -0.0806548897
 H          0.2166592267       -1.3575367012        1.6898260233
 C         -0.5464602080       -3.2869762316        1.2737478607
 C         -1.9907113442       -3.5754922038        1.5521244649
 C         -1.3038616449       -4.2371852999        0.3970794612
 H         -1.0810114024       -5.2916355711        0.4715422295
 H         -1.5428831960       -3.9082042966       -0.6016848287
 H         -2.2376645551       -4.1712988300        2.4181724116
 H         -2.7078316303       -2.7955780329        1.3391025542
 H          0.1659632097       -3.7287506223        1.9635040889
