  62
        -98.94071527
 C         -2.6462650401       -0.0874263003       -0.1854710577
 C         -2.5480064618       -1.2821790709       -0.9422172310
 C         -1.9891960102       -2.4468888131       -0.2500847798
 C         -1.6055366607       -2.3359317297        1.0343528795
 C         -0.9787378698       -3.4198814713        1.8676042376
 C          0.5390637924       -3.5297948042        1.6624288358
 C          0.9676660729       -4.1819474256        0.3466280510
 H          2.0281051262       -4.4245591398        0.4409915774
 H          0.4283806443       -5.1206446392        0.2121627983
 C          0.7740575084       -3.2892277654       -0.8873698956
 H          1.6668413846       -3.3404856652       -1.5163857478
 H          0.6673850860       -2.2505956306       -0.5627170297
 C         -0.4148612216       -3.6713308943       -1.7703085257
 H         -0.2396675109       -4.6552334048       -2.2119001072
 H         -0.4846789850       -2.9446165497       -2.5840634065
 C         -1.7670809777       -3.6980898507       -1.0461430842
 H         -2.5565314407       -3.7575031063       -1.7997466121
 H         -1.8316973403       -4.5737879112       -0.4009428365
 H          0.9405682467       -4.1215453574        2.4886214331
 H          0.9679431779       -2.5258308180        1.7262207612
 H         -1.4526735536       -4.3782492675        1.6525378656
 H         -1.1687977569       -3.1609902938        2.9114155211
 O         -1.7528746755       -1.1867803184        1.7413378456
 C         -2.2016746060       -0.0211008626        1.1383803073
 O         -2.1761785889        0.9725939893        1.8890169391
 O         -2.8882238433       -1.3625853191       -2.1544139204
 C         -3.0246618080        1.1840980913       -0.9320585352
 C         -1.8991438837        2.1649238071       -0.7188070454
 C         -2.0356680370        3.4220800267       -0.1482841734
 C         -0.9164701813        4.1894688186        0.1321994256
 C          0.3565739090        3.7162180032       -0.1309745321
 C          0.4976387401        2.4709980823       -0.7251326804
 C         -0.6207899371        1.7215663701       -1.0367334897
 H         -0.4978981290        0.7388424280       -1.4782577668
 N          1.8021530084        1.9266327279       -0.9246839846
 S          2.2209224520        1.0248084922        0.4539516649
 O          1.3807826899       -0.1484443218        0.5628023044
 O          2.2320852421        1.9234585982        1.5795460731
 C          3.8888053008        0.5389755647        0.0500334507
 C          4.8702667229        1.5114473090        0.0560397704
 C          6.1643088026        1.1580114812       -0.2904229170
 C          6.4530321539       -0.1541872412       -0.6360022396
 C          5.4571525864       -1.1187146543       -0.6367939800
 C          4.1597714599       -0.7710886768       -0.2929455577
 H          3.3534369699       -1.4873630577       -0.2760656757
 H          5.6837949228       -2.1382418982       -0.9043028728
 H          7.4610618604       -0.4272501630       -0.9055014054
 H          6.9419308368        1.9046229099       -0.2902390664
 H          4.5979228530        2.5148005188        0.3378045745
 H          1.7948812073        1.2723623996       -1.6993042103
 H          1.2356316956        4.2791368943        0.1364214684
 H         -1.0384703346        5.1582191714        0.5926108229
 H         -3.0156944572        3.7843897698        0.1170626478
 H         -3.0202811214        0.8810392796       -1.9932230921
 C         -4.4085342774        1.7434126699       -0.6548357978
 C         -5.5231840987        0.8425858748       -0.2155844005
 C         -4.9781456626        1.8734762389        0.7245346472
 H         -5.5886988077        2.7378949959        0.9420657768
 H         -4.3664751247        1.5503445084        1.5513015620
 H         -6.5053200447        0.9941772153       -0.6374899976
 H         -5.2794260943       -0.1937344953       -0.0303436852
 H         -4.6735567982        2.5235873744       -1.3623275456
