  62
        -98.94049492
 C         -2.3255063619       -0.3350183373        0.1968899028
 C         -3.5358152552       -0.8846276781        0.6834485572
 C         -4.7039384976        0.0051143589        0.6528840136
 C         -4.5578372412        1.2653473012        0.2041236116
 C         -5.6716380183        2.2626591785        0.0725655131
 C         -6.3110354718        2.1995987689       -1.3215803034
 C         -6.6787732594        0.7845788479       -1.7680988621
 H         -7.1499227026        0.8654294427       -2.7500897097
 H         -5.7632013920        0.2029511980       -1.8984232202
 C         -7.6191049838        0.0409197942       -0.8093253407
 H         -8.4001510574       -0.4485541845       -1.3948664117
 H         -8.1102953656        0.7532087349       -0.1455177211
 C         -6.9421577257       -1.0468636054        0.0266880243
 H         -6.3698438564       -1.7089762877       -0.6280164921
 H         -7.7234810943       -1.6487117315        0.4983872997
 C         -6.0122501328       -0.5506268881        1.1411981377
 H         -6.5358164596        0.1816251967        1.7590553305
 H         -5.7567620488       -1.4100578052        1.7679059106
 H         -7.2043495680        2.8267690653       -1.3203610851
 H         -5.6050253597        2.6141078659       -2.0448931379
 H         -6.4208390897        2.0658889309        0.8368403788
 H         -5.2586665881        3.2605983543        0.2284501435
 O         -3.3729121457        1.7660954006       -0.2301007417
 C         -2.2297987561        0.9805122243       -0.2567352536
 O         -1.2191419565        1.5623012915       -0.6940821290
 H          1.5008883491       -0.4798478654       -0.5293030168
 C          1.2571594353       -0.2627260316        0.4967820982
 C          0.0053687360       -0.5640501917        1.0068853874
 C         -0.2627329208       -0.2619027977        2.3403763525
 C          0.6961412621        0.3323025182        3.1365496261
 C          1.9468156354        0.6300026519        2.6237573568
 C          2.2235196127        0.3360013680        1.2942723057
 N          3.4711829438        0.6603996283        0.7389419268
 S          4.1222735912       -0.3237790598       -0.4649336143
 O          3.5329669649        0.0210172231       -1.7339772344
 O          4.0310098333       -1.7130675865       -0.0742616290
 C          5.8207732932        0.2192782405       -0.4265333808
 C          6.7624400679       -0.5294187640        0.2536734510
 C          8.0725225232       -0.0786119769        0.2980234115
 C          8.4160203730        1.1078576738       -0.3322332242
 C          7.4598805137        1.8482187219       -1.0119234261
 C          6.1487435072        1.4025437380       -1.0614578122
 H          5.3737769489        1.9385304088       -1.5845461164
 H          7.7310397186        2.7687403732       -1.5032783422
 H          9.4359039807        1.4568167442       -0.2963244094
 H          8.8188444203       -0.6533565924        0.8223539399
 H          6.4505788783       -1.4491653498        0.7218286210
 H          4.1612455262        0.9090079387        1.4342384211
 H          2.6973318296        1.0954185262        3.2444767792
 H          0.4721666656        0.5611401882        4.1677264414
 H         -1.2394276787       -0.4984545040        2.7408566026
 C         -1.0812879060       -1.2045946135        0.1799849543
 H         -1.3743166035       -2.1449900682        0.6707808531
 C         -0.6631217882       -1.5109848240       -1.2420649712
 C          0.1578697147       -2.7299329295       -1.5347184783
 C         -1.2798524531       -2.6759682157       -1.9538501337
 H         -1.5080259267       -2.5762925196       -3.0044359098
 H         -1.9947380645       -3.2709962585       -1.4043878034
 H          0.4243429064       -3.3629755737       -0.7015823168
 H          0.9249844583       -2.6632781851       -2.2919881528
 H         -0.4680471744       -0.6161864558       -1.8239209323
 O         -3.6325550402       -2.0607760426        1.1269173784
