  62
        -98.93116881
 C          2.4642775863        1.2747870832       -0.3176697908
 C          2.0507975824       -0.0588112939       -0.0849890674
 C          3.0638020175       -0.9856053154        0.4696661111
 C          4.2970469178       -0.5230279999        0.7415256191
 C          5.4896494447       -1.2766942033        1.2682585775
 C          6.1562645033       -2.1576964795        0.2001433333
 C          5.1884877724       -2.9717052154       -0.6541115338
 H          4.4977565314       -2.2931731622       -1.1577515803
 H          5.7725247652       -3.4745542094       -1.4293372658
 C          4.3953348711       -4.0372256340        0.0988329707
 H          3.8304462893       -4.6059063998       -0.6441688614
 H          5.0905140285       -4.7254270599        0.5845810556
 C          3.4082417447       -3.5204165172        1.1484969434
 H          2.7425965325       -4.3495174547        1.4060357772
 H          3.9178666291       -3.2401397416        2.0664944898
 C          2.5158656392       -2.3778876020        0.6738626871
 H          2.0441212320       -2.6625452310       -0.2737610914
 H          1.6859768927       -2.2631359529        1.3825349804
 H          6.8598843441       -2.8277378902        0.6970712258
 H          6.7249619838       -1.5066220097       -0.4683178247
 H          6.2108168195       -0.5260079352        1.5993863877
 H          5.2061790358       -1.8666232535        2.1348444965
 O          4.6447685055        0.7773698605        0.5207100858
 C          3.7552993511        1.6992281801        0.0103031964
 O          4.2221047410        2.8504868150       -0.1045830170
 H         -0.9014403924        1.2254570760       -1.4153426199
 C         -0.8926382694        1.7169750178       -0.4551427680
 C          0.2607726442        2.3499853142       -0.0227821316
 C          0.2663417830        2.9459116592        1.2344927721
 C         -0.8592886784        2.9107982225        2.0363224774
 C         -2.0081819758        2.2711801894        1.6052209275
 C         -2.0172085259        1.6610462252        0.3584311707
 N         -3.1765632664        0.9991368185       -0.0887331686
 S         -4.0157631226        0.0656541108        1.0420844721
 O         -4.8843193680        0.9401583366        1.7924326553
 O         -3.1023134620       -0.7339161051        1.8267905790
 C         -4.9891624207       -0.9710521924       -0.0320134052
 C         -6.2613370154       -0.5686167940       -0.3905931760
 C         -6.9999792945       -1.3692269384       -1.2475454073
 C         -6.4566089450       -2.5505151581       -1.7297071467
 C         -5.1777913782       -2.9411419423       -1.3609410196
 C         -4.4333524207       -2.1450083094       -0.5049114172
 H         -3.4383578403       -2.4140477439       -0.1860281212
 H         -4.7578896337       -3.8606412584       -1.7360657123
 H         -7.0333209333       -3.1729320176       -2.3955291092
 H         -7.9949473822       -1.0703962521       -1.5353696733
 H         -6.6430596344        0.3533771410        0.0157573711
 H         -2.9927770807        0.4610243117       -0.9251111618
 H         -2.8875006774        2.2178959369        2.2271659490
 H         -0.8418250912        3.3776604362        3.0100078696
 H          1.1711734112        3.4264449785        1.5819991115
 C          1.5258364566        2.3501682520       -0.8432313089
 H          2.0529449091        3.2979200950       -0.6496324896
 C          1.2655963703        2.3007609359       -2.3413298466
 C          2.3867833695        2.0033450583       -3.2910655472
 C          1.2561971290        1.0329456182       -3.1386210291
 H          0.5447909963        0.9484361870       -3.9474622604
 H          1.4377412352        0.1058926688       -2.6192931954
 H          2.4582984724        2.5766908651       -4.2028807791
 H          3.3433999571        1.7460372733       -2.8592637786
 H          0.5639963865        3.0709930572       -2.6476848192
 O          0.8966070607       -0.4952477559       -0.3339587278
