  62
        -98.94433925
 C         -1.6036891469       -1.3843497950        0.5355429702
 C         -1.6138130459       -0.0777447243        1.0878503095
 C         -2.7527747595        0.7688489471        0.7184804652
 C         -3.7107412845        0.2811195890       -0.0905340249
 C         -4.9532295692        1.0071009230       -0.5306046862
 C         -4.7478503705        1.9120943077       -1.7529697085
 C         -3.9522157774        3.1904225707       -1.4870926601
 H         -4.0662863055        3.8272877850       -2.3665598311
 H         -4.3918875749        3.7207118089       -0.6418494843
 C         -2.4556680969        2.9610106287       -1.2328501664
 H         -1.8737944387        3.6785158295       -1.8152519620
 H         -2.1744340114        1.9648378334       -1.5828455028
 C         -2.0278746552        3.1116790291        0.2269211790
 H         -2.1787232525        4.1448528384        0.5465789024
 H         -0.9608190953        2.8868860005        0.2930735439
 C         -2.7647359366        2.1865655072        1.2041452095
 H         -2.2410545040        2.2138341166        2.1624957703
 H         -3.7882980379        2.5298477986        1.3528230307
 H         -5.7375362599        2.1940606788       -2.1198019315
 H         -4.2556143673        1.3322725535       -2.5373214262
 H         -5.3462775785        1.5963094055        0.2983272416
 H         -5.6856980799        0.2395550529       -0.7899318767
 O         -3.6638620042       -0.9766766880       -0.6019799408
 C         -2.5968689539       -1.8259349117       -0.3388764161
 O         -2.6711898843       -2.9207128988       -0.9283989406
 O         -0.7170500828        0.3562629821        1.8581328802
 C         -0.4173816724       -2.2765502744        0.8643960679
 C          0.5125738397       -2.2703681350       -0.3240086833
 C          0.5161733092       -3.2666726505       -1.2922960278
 C          1.3597864338       -3.1713335457       -2.3850699793
 C          2.2258026344       -2.1013417567       -2.5213874100
 C          2.2297561245       -1.0993877307       -1.5571324027
 C          1.3670861574       -1.1849789857       -0.4762992815
 H          1.3573215762       -0.3976115521        0.2628758755
 N          3.0898890701        0.0044197135       -1.6625662497
 S          3.8913182495        0.5495761835       -0.2932576197
 O          5.0800058859        1.1969607509       -0.8093687562
 O          4.1131411489       -0.5238357399        0.6474108076
 C          2.8317135454        1.7947138945        0.4061791620
 C          2.4149000778        1.6864160165        1.7169285558
 C          1.6275853786        2.6911353356        2.2557136990
 C          1.2777392795        3.7829171306        1.4778335001
 C          1.7060175624        3.8782542814        0.1614251366
 C          2.4910297811        2.8759087452       -0.3829770322
 H          2.8483374711        2.9150559512       -1.3987023568
 H          1.4261987277        4.7286335936       -0.4395967307
 H          0.6632215448        4.5629332828        1.8992856811
 H          1.2837026531        2.6098270620        3.2739108752
 H          2.7043636518        0.8183718613        2.2879207753
 H          3.7065714214       -0.0185859324       -2.4619748433
 H          2.8927460008       -2.0374711379       -3.3681908646
 H          1.3504449615       -3.9471540470       -3.1359458112
 H         -0.1569767249       -4.1029502666       -1.1993944477
 H          0.1019288603       -1.7721823869        1.6913183336
 C         -0.8184060417       -3.6619821238        1.3212766858
 C          0.2059061558       -4.5278663957        1.9899145022
 C         -0.9208966675       -3.9467853961        2.7885491965
 H         -1.7043138257       -4.6061601010        3.1309004925
 H         -0.6988043120       -3.1408937278        3.4727812828
 H          0.1995176615       -5.5876088563        1.7857972626
 H          1.1936349321       -4.1129744825        2.1272953043
 H         -1.5426467004       -4.1401522603        0.6742617782
