  62
        -98.94385076
 C          1.8686515442        0.8490205928        0.2341620418
 C          2.0883280685       -0.2245318650        1.1272536693
 C          2.2685779138       -1.5453627389        0.5135392465
 C          2.1691010619       -1.6670498581       -0.8228508882
 C          2.3621807060       -2.9475354836       -1.5820528784
 C          3.8249817364       -3.1278175367       -2.0116509155
 C          4.8302119701       -2.9129863155       -0.8801094340
 H          5.8257385778       -3.0940053156       -1.2909166952
 H          4.7952081846       -1.8665608906       -0.5686520908
 C          4.6094829331       -3.8134032037        0.3433013554
 H          3.9773804010       -4.6591901650        0.0707840085
 H          5.5736845019       -4.2165402326        0.6597971115
 C          4.0057521882       -3.1000924150        1.5543867581
 H          4.0947892683       -3.7634291858        2.4187321751
 H          4.5824942120       -2.1978872730        1.7726077072
 C          2.5277831383       -2.7077188862        1.4308573255
 H          2.1843108131       -2.3889809353        2.4194798164
 H          1.9383739118       -3.5754215684        1.1269763645
 H          3.9427300578       -4.1328530311       -2.4209196510
 H          4.0425475503       -2.4094396820       -2.8054158054
 H          2.0485691122       -3.7823391531       -0.9581158360
 H          1.7283795527       -2.9148219454       -2.4701926184
 O          1.9290219019       -0.6172470286       -1.6488054039
 C          1.7627333825        0.6614576202       -1.1439747460
 O          1.5427726742        1.5322904574       -2.0096643730
 O          2.1258073370       -0.0840150162        2.3811042699
 C          1.6431945474        2.2422213411        0.7938678693
 C          0.2982133496        2.7513015826        0.3372893601
 C          0.0844255039        4.0374810562       -0.1390617284
 C         -1.1677099267        4.4139388399       -0.5942803665
 C         -2.2167859615        3.5143607625       -0.6052961289
 C         -2.0172872480        2.2288529641       -0.1128029517
 C         -0.7776193964        1.8728958656        0.3885850325
 H         -0.6272134651        0.8755309047        0.7732157394
 N         -3.0707927826        1.2904800550       -0.0943803077
 S         -2.8810430589       -0.2324468574       -0.7996777928
 O         -1.5753717740       -0.7717971378       -0.5248406510
 O         -3.2703415600       -0.1519083497       -2.1944460278
 C         -4.1189293477       -1.1376829333        0.1082894935
 C         -5.3465790688       -1.4015209439       -0.4667159979
 C         -6.3036344670       -2.0755254663        0.2760270973
 C         -6.0185821344       -2.4687276532        1.5745479711
 C         -4.7805381079       -2.1968381894        2.1381931495
 C         -3.8198757169       -1.5240921143        1.4003308582
 H         -2.8420855807       -1.2967792972        1.7942861076
 H         -4.5603172753       -2.5049489326        3.1477038932
 H         -6.7643289900       -2.9919505465        2.1518648191
 H         -7.2659767296       -2.2903602939       -0.1597631803
 H         -5.5206105077       -1.0832591156       -1.4817830777
 H         -3.9286149853        1.6853298039       -0.4603025597
 H         -3.1830922398        3.7990730714       -0.9945866676
 H         -1.3217210906        5.4150251868       -0.9679690590
 H          0.8998705400        4.7416104265       -0.1690429623
 H          1.6210745377        2.1211837625        1.8874371833
 C          2.7929124645        3.1565596890        0.4259420046
 C          3.1793536690        4.2901056653        1.3273698850
 C          4.0594485377        3.0820930979        1.2232854073
 H          5.0017153530        3.1702298950        0.7036453385
 H          4.0806583590        2.3890878916        2.0516776197
 H          3.5216528119        5.2109000010        0.8797075673
 H          2.6092741066        4.4235012306        2.2341737075
 H          2.8825125026        3.2964894789       -0.6458963208
