  62
        -98.95212077
 C         -2.3586930732       -0.3344277785        0.0416461690
 C         -1.5170074957        0.2329641784       -0.9428704784
 C         -1.5164956060        1.6989586969       -1.0244033371
 C         -2.2924110254        2.4037945559       -0.1812163450
 C         -2.4032433581        3.9008152500       -0.1628346899
 C         -1.4110762719        4.5397057132        0.8169405939
 C          0.0270785120        4.0465245021        0.6569517111
 H          0.6439128651        4.6130256082        1.3590563563
 H          0.0899359977        2.9987269931        0.9602098234
 C          0.5996084432        4.1950546850       -0.7595011045
 H          0.0146128465        4.9221008166       -1.3249366021
 H          1.6171334545        4.5841762652       -0.6820068540
 C          0.6841664314        2.8818683698       -1.5399823927
 H          1.1422839073        2.1210615366       -0.9028307900
 H          1.3427381813        3.0353140047       -2.3993799330
 C         -0.6467255882        2.3343277873       -2.0723263368
 H         -1.1878216360        3.1264623818       -2.5950467494
 H         -0.4183992844        1.5417007077       -2.7908940229
 H         -1.4432169592        5.6226689491        0.6791205114
 H         -1.7358478036        4.3170861045        1.8361191408
 H         -2.2297015213        4.2807776121       -1.1680515204
 H         -3.4181053432        4.1618672981        0.1437646282
 O         -3.0699553606        1.8248842259        0.7702745601
 C         -3.1083023588        0.4480663480        0.9174882151
 O         -3.8431646142        0.0475920817        1.8449187166
 H         -0.4405931849       -0.8711724142        1.6567408312
 C         -0.1434925997       -1.7725122037        1.1402975865
 C         -1.0542024588       -2.4293349027        0.3228971442
 C         -0.6490154841       -3.5950394840       -0.3158648804
 C          0.6432655339       -4.0669389396       -0.1622419162
 C          1.5621988523       -3.3782259825        0.6081947712
 C          1.1624926502       -2.2176863848        1.2603896857
 N          2.0632090157       -1.4640514195        2.0422358768
 S          2.3868860006        0.1004680173        1.5323881745
 O          3.3576983154        0.6089372543        2.4781060467
 O          1.1596274128        0.8429526062        1.4175051613
 C          3.1709760384       -0.1033600112       -0.0576991050
 C          4.5475918387       -0.0013149321       -0.1270812036
 C          5.1781734337       -0.2152967863       -1.3415122164
 C          4.4247295354       -0.5365695523       -2.4608239885
 C          3.0455341957       -0.6400341916       -2.3725845282
 C          2.4054488489       -0.4239358306       -1.1611256826
 H          1.3312823578       -0.4945959594       -1.0813159403
 H          2.4511733984       -0.8887514403       -3.2370734157
 H          4.9138406248       -0.7064279206       -3.4071007201
 H          6.2509575682       -0.1333374595       -1.4106733239
 H          5.0895439049        0.2529799868        0.7695795268
 H          2.9382106776       -1.9377860207        2.2222646191
 H          2.5783661531       -3.7300221588        0.7053602032
 H          0.9440361657       -4.9728452122       -0.6659094135
 H         -1.3441606434       -4.1314514649       -0.9408322674
 C         -2.4383193187       -1.8440750995        0.1839875625
 H         -2.9911341775       -2.0353870394        1.1158375128
 C         -3.2202959890       -2.4274563133       -0.9764085775
 C         -4.0480203349       -3.6628416512       -0.7911204666
 C         -4.7152837918       -2.3317738005       -0.9590045268
 H         -5.2300616654       -2.1227612071       -1.8847362739
 H         -5.1693187332       -1.8700080828       -0.0939984705
 H         -4.0618263898       -4.1139465865        0.1895594981
 H         -4.1098701605       -4.3696456001       -1.6048500260
 H         -2.7215009187       -2.2805129229       -1.9277063980
 O         -0.8122911740       -0.4554350559       -1.7281046495
