  62
        -98.93688208
 C          2.4146834096        1.0850821012       -0.2041078878
 C          2.4778269098       -0.1474269197        0.4922666632
 C          3.8277012168       -0.5971864687        0.8652197417
 C          4.8947242535        0.1756513036        0.5977171540
 C          6.3273605105       -0.1415249545        0.9303090033
 C          7.0227722660       -1.0366543585       -0.1046149260
 C          6.5788721568       -2.5000537222       -0.1026258114
 H          7.2933145740       -3.0519497322       -0.7165888676
 H          6.6450127534       -2.8972632094        0.9106753514
 C          5.1672093739       -2.7355517677       -0.6581525600
 H          5.1838905666       -3.5801563316       -1.3507127120
 H          4.8492053480       -1.8609401616       -1.2306529340
 C          4.1111482358       -3.0420257549        0.4040343225
 H          3.1451995289       -3.1557374088       -0.0953502680
 H          4.3486603292       -3.9886784918        0.8943613583
 C          3.9642057348       -1.9575735442        1.4795857821
 H          3.0519209056       -2.1572954349        2.0471206411
 H          4.8146339292       -1.9851341466        2.1603440775
 H          6.8652720083       -0.6096403933       -1.0978015498
 H          8.0944406675       -1.0042763775        0.1046576416
 H          6.3805559901       -0.6100123488        1.9133508133
 H          6.8555293633        0.8135129494        0.9701700913
 O          4.7832896928        1.3879896315       -0.0086982704
 C          3.5535137311        1.8612603286       -0.4354467775
 O          3.6020332316        2.9787916441       -0.9878168870
 O          1.4762885200       -0.8450141687        0.7952169002
 C          1.0973732195        1.6581640287       -0.6959262691
 C          0.0361374883        1.5354919237        0.3693992569
 C          0.2220328849        2.2061048399        1.5760925694
 C         -0.7256628125        2.1340736357        2.5778887784
 C         -1.8898581884        1.4095231171        2.3906663487
 C         -2.0820230785        0.7324671895        1.1928718540
 C         -1.1215915634        0.7961667523        0.1929162364
 H         -1.2892672499        0.2424822911       -0.7156377067
 N         -3.2393334172       -0.0338477561        0.9802133888
 S         -3.8905615644       -0.0878433266       -0.5748026014
 O         -3.2290749155       -1.1194508998       -1.3330880577
 O         -3.8854723052        1.2352011941       -1.1592159409
 C         -5.5615602419       -0.5934138530       -0.2079196684
 C         -5.8195550361       -1.9358479614       -0.0031914801
 C         -7.1103191566       -2.3293668975        0.3122033244
 C         -8.1160128218       -1.3798957944        0.4177108130
 C         -7.8425613861       -0.0367337278        0.2073557797
 C         -6.5534369647        0.3638741391       -0.1071646384
 H         -6.2959854737        1.3951619053       -0.2877273035
 H         -8.6271694591        0.6983731811        0.2865726470
 H         -9.1198334341       -1.6893285062        0.6624139449
 H         -7.3271560117       -3.3730115704        0.4734130073
 H         -5.0080760535       -2.6376486908       -0.1047784675
 H         -3.9499113299        0.1187340642        1.6825088702
 H         -2.6349992720        1.3574959056        3.1700878530
 H         -0.5631923785        2.6549621100        3.5097192193
 H          1.1289122050        2.7792812382        1.7181795213
 H          1.2920495359        2.7334342185       -0.8487586074
 C          0.6499590237        1.1043083053       -2.0407560686
 C          1.6469416776        0.6826252584       -3.0772293622
 C          0.7927560500       -0.3431839925       -2.3980149048
 H         -0.0042104129       -0.8108300777       -2.9585111468
 H          1.2479016678       -0.9946264177       -1.6687825360
 H          1.4448834760        0.9221330867       -4.1103475716
 H          2.6933888995        0.7341235378       -2.8129515888
 H         -0.2409711987        1.6071633671       -2.4078339624
