  62
        -98.93623325
 C          2.4195671308        0.5487166137        0.2254470356
 C          2.7959002267       -0.8073542808        0.0428560279
 C          4.1471614919       -1.0473368888       -0.4731999658
 C          4.9407963406       -0.0015976265       -0.7662157811
 C          6.3362375745       -0.0752587914       -1.3244683498
 C          7.4235384610       -0.2914522250       -0.2630238150
 C          7.4715691082       -1.6946862782        0.3427728187
 H          7.5079425442       -2.4339400166       -0.4579010764
 H          8.4072233533       -1.7713231537        0.9001683580
 C          6.3065406228       -2.0157762875        1.2894451186
 H          5.8158942647       -1.0877084879        1.5920087795
 H          6.6929827914       -2.4836137799        2.1977666317
 C          5.2563136195       -2.9608635928        0.7054717892
 H          4.4605329199       -3.0879809460        1.4440604767
 H          5.7049587496       -3.9397944150        0.5223984089
 C          4.6160051828       -2.4656030604       -0.5978807389
 H          5.3209722686       -2.5615275837       -1.4234802467
 H          3.7416088236       -3.0863419146       -0.8083919006
 H          8.3865500151       -0.0913201821       -0.7382996753
 H          7.2861625226        0.4444254103        0.5325518345
 H          6.3905472693       -0.8695186507       -2.0694810729
 H          6.5231528628        0.8802504854       -1.8190738167
 O          4.5384449172        1.2843601431       -0.6009589615
 C          3.2805180155        1.5998118286       -0.0950234412
 O          3.0814114130        2.8234862168        0.0034648618
 O          2.0324792362       -1.7762310302        0.3054430651
 C          1.0286364516        0.7934699227        0.7797473369
 C          0.0057453339        0.9391964957       -0.3176337569
 C          0.2308510200        1.7542184959       -1.4226220312
 C         -0.7402516542        1.8944776550       -2.3973501712
 C         -1.9563275711        1.2442674071       -2.2813238147
 C         -2.1871187466        0.4206454613       -1.1858185849
 C         -1.2019072239        0.2647912700       -0.2204892243
 H         -1.3896476468       -0.3916804521        0.6164452382
 N         -3.4009387355       -0.2684413374       -1.0419403593
 S         -4.0152419873       -0.4525463582        0.5218653846
 O         -3.8376351012        0.7740167318        1.2650275135
 O         -3.4477352619       -1.6409603336        1.1073711019
 C         -5.7414349270       -0.7221064878        0.1677517333
 C         -6.6211926668        0.3418309496        0.2337895648
 C         -7.9562473224        0.1268574692       -0.0707118779
 C         -8.3854544165       -1.1399712691       -0.4369990544
 C         -7.4904801120       -2.1980209287       -0.4982255852
 C         -6.1545622181       -1.9906592246       -0.1938135606
 H         -5.4246348131       -2.7830911245       -0.2178368659
 H         -7.8284866447       -3.1820456632       -0.7804846151
 H         -9.4248138825       -1.3047278806       -0.6731948598
 H         -8.6551406369        0.9461468011       -0.0202768492
 H         -6.2438551837        1.3068261507        0.5319987497
 H         -4.1093521981        0.0348479261       -1.6960778951
 H         -2.7174312443        1.3671769668       -3.0367614149
 H         -0.5532887203        2.5301236419       -3.2498626713
 H          1.1682862270        2.2842027966       -1.5017068511
 H          0.7786824729       -0.1285691527        1.3306994417
 C          0.9636873625        1.9411875653        1.7784051068
 C          0.3313082870        3.2638775503        1.4805984609
 C         -0.3410881149        2.3116125375        2.4208091968
 H         -0.3468123595        2.5430645126        3.4755345287
 H         -1.2357197842        1.8102441245        2.0784157730
 H          0.8073019793        4.1460563572        1.8802915596
 H         -0.1053026909        3.4112409040        0.5055670721
 H          1.8408405551        1.9653659938        2.4179621876
