  62
        -98.94303827
 C         -0.8078821104       -2.0293174887       -0.5547952314
 C         -1.4597620802       -1.0810194481       -1.3808204408
 C         -2.7626190400       -0.5978799579       -0.8879043403
 C         -3.2337871399       -1.0049035584        0.3026169595
 C         -4.5366700497       -0.5956893283        0.9342190800
 C         -4.4750460992        0.7539369913        1.6622408106
 C         -4.4618526089        1.9825752318        0.7521633113
 H         -5.2764580591        1.9084486924        0.0301687914
 H         -4.6623658985        2.8498850315        1.3845778717
 C         -3.1353959090        2.2116810018        0.0146681512
 H         -2.8680233486        3.2702825116        0.0727210616
 H         -2.3376717691        1.6616863412        0.5213436707
 C         -3.1623550993        1.8338676525       -1.4662289890
 H         -2.1748306193        2.0315809524       -1.8883198791
 H         -3.8804838592        2.4706794630       -1.9886014186
 C         -3.5216597998        0.3694696228       -1.7489193897
 H         -3.2649326101        0.1524228632       -2.7891035299
 H         -4.5932136899        0.2184022530       -1.6159792996
 H         -3.5871826290        0.7680149707        2.2998367705
 H         -5.3528757490        0.8167007413        2.3100946908
 H         -5.3220553498       -0.5673445676        0.1777868201
 H         -4.7834163098       -1.3709459186        1.6630115096
 O         -2.5620583701       -1.8908433890        1.0848727790
 C         -1.3530138503       -2.4208154692        0.6733454085
 O         -0.8610276605       -3.2451015597        1.4713651980
 O         -1.0247448503       -0.6488399677       -2.4781489406
 C          0.5406826293       -2.6800335490       -0.8471491519
 C          1.5330171096       -2.2509696698        0.2056013881
 C          2.4190779095       -3.1447720404        0.7925519975
 C          3.2930849598       -2.7148849912        1.7757592776
 C          3.2978212403       -1.3958933614        2.1921439282
 C          2.4178944904       -0.4915741608        1.6056418489
 C          1.5595988401       -0.9246402400        0.6077293988
 H          0.8562239703       -0.2349894896        0.1731475292
 N          2.4113911009        0.8523748090        1.9871807995
 S          1.1895411312        1.9196866596        1.5994019103
 O          1.4413547617        3.0558170791        2.4604625708
 O         -0.1209365690        1.3227310199        1.7073500802
 C          1.5732606511        2.3614835103       -0.0815132196
 C          2.7565914412        3.0371122900       -0.3108785494
 C          3.1051795511        3.3552425406       -1.6129326793
 C          2.2736820808        2.9882931014       -2.6613039694
 C          1.0875815307        2.3157413916       -2.4148791095
 C          0.7314454508        2.0028802411       -1.1128087096
 H         -0.1826530594        1.4731750613       -0.8956927597
 H          0.4384632404        2.0109701823       -3.2204575495
 H          2.5505496007        3.2267491718       -3.6761002193
 H          4.0256105713        3.8813646904       -1.8085021692
 H          3.3730379015        3.3049311994        0.5311136506
 H          2.9234644211        1.0904117484        2.8214167496
 H          3.9663662205       -1.0681281720        2.9732308483
 H          3.9707664396       -3.4185954516        2.2350995571
 H          2.4000175091       -4.1838657303        0.4985109370
 H          0.3901455990       -3.7668389290       -0.7246857625
 C          1.0665524292       -2.4538226884       -2.2553104019
 C          2.0369623695       -1.3672251986       -2.5965554915
 C          2.4850059590       -2.7966251687       -2.6026847723
 H          2.6778246987       -3.2739707983       -3.5513917326
 H          3.1353251790       -3.1186677893       -1.8036084026
 H          1.9014665295       -0.8556969381       -3.5366089112
 H          2.3855839398       -0.7259012391       -1.8010639813
 H          0.3175365490       -2.6768236278       -3.0058344619
