  62
        -98.94516488
 C          1.0472504851        1.3075148935        0.4667350645
 C          1.5477427298        0.7070980918       -0.7164296344
 C          2.3603375547       -0.5044797145       -0.5213645805
 C          2.5884196757       -0.9778706566        0.7158334448
 C          3.3695603010       -2.2153624046        1.0657480743
 C          4.8887266113       -2.0021613278        1.1176459592
 C          5.5704027973       -1.8238283770       -0.2396224852
 H          6.6458276645       -1.9086654640       -0.0713060343
 H          5.2793191969       -2.6400003294       -0.9017039688
 C          5.2837034930       -0.4789945774       -0.9222693878
 H          4.8917616336        0.2273341960       -0.1869352647
 H          6.2162956532       -0.0584575772       -1.3050413493
 C          4.3083351618       -0.5595095399       -2.0970809332
 H          4.7477950207       -1.1555466964       -2.9001832231
 H          4.1445351866        0.4512895277       -2.4793451869
 C          2.9416682274       -1.1565171757       -1.7387715642
 H          2.2527514825       -0.9794839526       -2.5695326452
 H          3.0277161656       -2.2331457402       -1.5887064018
 H          5.0981703114       -1.1338438949        1.7464320393
 H          5.3231139626       -2.8782730888        1.6045769230
 H          3.0333087996       -2.5264986697        2.0571596271
 H          3.1346647694       -3.0091446333        0.3556085027
 O          2.0964195718       -0.3702394875        1.8278376312
 C          1.3253495654        0.7772151137        1.7299519118
 O          0.9499162873        1.2288072203        2.8299899792
 H         -0.9769446304        0.7249764811       -1.2355240858
 C         -1.7024755115        1.2022011448       -0.5963298916
 C         -1.3043251243        2.1552242782        0.3296229757
 C         -2.2744816914        2.7669421260        1.1159922134
 C         -3.6092231059        2.4338990127        0.9763832642
 C         -3.9996218047        1.4666917093        0.0677556124
 C         -3.0379110413        0.8453362963       -0.7196760668
 N         -3.3972754774       -0.1583745175       -1.6374153710
 S         -2.5353038900       -1.5941431749       -1.6084070097
 O         -1.2587290011       -1.4386342642       -2.2531788604
 O         -3.4333303659       -2.5608319691       -2.2045827032
 C         -2.3283179381       -1.9470596675        0.1274450341
 C         -1.1109106131       -1.7182522269        0.7340164793
 C         -0.9912593831       -1.9316530140        2.0983493431
 C         -2.0866693823       -2.3676438263        2.8271146800
 C         -3.3019839826       -2.6019716635        2.2013584917
 C         -3.4280749321       -2.3855924530        0.8392794002
 H         -4.3520906622       -2.5648018650        0.3138577933
 H         -4.1489413745       -2.9467573887        2.7722255879
 H         -1.9876100778       -2.5256927022        3.8893811481
 H         -0.0482541854       -1.7386317820        2.5857301044
 H         -0.2792030003       -1.3779674555        0.1358977160
 H         -4.3893543983       -0.3469718829       -1.6723588526
 H         -5.0386886128        1.1933174104       -0.0337998932
 H         -4.3515313284        2.9199758023        1.5904606124
 H         -1.9740028696        3.5015001707        1.8478684964
 C          0.1516265299        2.5343117000        0.4786978262
 H          0.2747254253        2.9849637775        1.4735772010
 C          0.5193469296        3.5745661808       -0.5624798858
 C          0.1942654693        5.0145942180       -0.3092329659
 C          1.6185856436        4.5495442765       -0.2717202905
 H          2.2807914178        4.8319193155       -1.0762325728
 H          2.1066433064        4.4785861321        0.6897752540
 H         -0.2773687979        5.2681918289        0.6277915463
 H         -0.1268142541        5.6215810207       -1.1416699286
 H          0.4351450681        3.2088773349       -1.5775287427
 O          1.3398070144        1.1315180751       -1.8830704144
