  62
        -98.94525021
 C          1.8019486400        1.4663071053        0.0993445515
 C          1.5612521688        0.0810293728       -0.0721530172
 C          2.6249341572       -0.8090762902        0.4110978258
 C          3.7299167310       -0.2905039158        0.9763558183
 C          4.8914913834       -1.0720109158        1.5281950915
 C          5.9170307388       -1.4982245611        0.4685856232
 C          5.4635335137       -2.6238330112       -0.4621392898
 H          6.3487288047       -2.9699809845       -0.9995900563
 H          5.0975871945       -3.4604783747        0.1337538851
 C          4.3958721955       -2.2099230288       -1.4847039227
 H          4.6683517207       -2.5943314477       -2.4702545699
 H          4.3697933451       -1.1205657699       -1.5627230720
 C          2.9881132731       -2.7173995545       -1.1722647292
 H          2.3084395350       -2.3346678838       -1.9374704684
 H          2.9743703196       -3.8083363955       -1.2223972700
 C          2.4511909770       -2.2820940575        0.1972474748
 H          1.3792023867       -2.4886477137        0.2274365134
 H          2.9439865083       -2.8431715279        0.9908587693
 H          6.1910577229       -0.6226082253       -0.1245681925
 H          6.8121039849       -1.8326749246        0.9983081030
 H          4.5241309103       -1.9529515007        2.0553459508
 H          5.3912631852       -0.4198714415        2.2477733644
 O          3.9147960892        1.0481202092        1.1334409772
 C          2.9624608513        1.9554890273        0.6983198324
 O          3.2574666819        3.1506407152        0.9041264549
 O          0.5206742310       -0.3900830831       -0.5978144039
 C          0.7614080208        2.4748775494       -0.3566591330
 C         -0.5430913651        2.1569793667        0.3309722399
 C         -0.5882182620        2.2035164367        1.7220284184
 C         -1.7400941258        1.8636155052        2.4047190259
 C         -2.8719214928        1.4622636572        1.7157377516
 C         -2.8358796245        1.4104928333        0.3294253918
 C         -1.6814926593        1.7692164089       -0.3554107249
 H         -1.6723821968        1.7209149337       -1.4327112227
 N         -3.9792669113        0.9988498486       -0.3832668809
 S         -4.6540157317       -0.4881663381       -0.0136509402
 O         -5.5840740761       -0.7525009624       -1.0884694197
 O         -5.2157317930       -0.4354566881        1.3126935293
 C         -3.3149454599       -1.6638956805       -0.0655513262
 C         -3.0086711714       -2.2582647807       -1.2730474348
 C         -1.9583775940       -3.1584922613       -1.3299293823
 C         -1.2311072417       -3.4414194131       -0.1849194700
 C         -1.5432121281       -2.8268355384        1.0171303596
 C         -2.5948797109       -1.9276885125        1.0813389206
 H         -2.8705605152       -1.4360404185        1.9999984709
 H         -0.9685443948       -3.0412862618        1.9044514491
 H         -0.4153420203       -4.1462472466       -0.2313968512
 H         -1.7065630479       -3.6333455846       -2.2646962726
 H         -3.6059776046       -2.0187255472       -2.1384171278
 H         -3.8696511425        1.0748832842       -1.3848044272
 H         -3.7745898002        1.1774413084        2.2316233706
 H         -1.7585273052        1.9065663160        3.4834797537
 H          0.3013274379        2.5015928962        2.2610339284
 H          1.1090604897        3.4564069900       -0.0056252214
 C          0.6768247919        2.4982960018       -1.8681784875
 C          0.1213093919        3.7009941498       -2.5687148310
 C          1.5895824958        3.4074074515       -2.6323267271
 H          2.0060000910        3.0556247121       -3.5644018427
 H          2.2640988937        4.0287394608       -2.0612776979
 H         -0.4685073729        3.5546853982       -3.4611156695
 H         -0.2044061119        4.5285750166       -1.9568778448
 H          0.4806568861        1.5206765591       -2.2935511588
