  62
        -98.93314255
 C          2.2041417865        0.8625486797        0.0582328874
 C          2.5033921022       -0.2391052427        0.8924519129
 C          3.1446102783       -1.3962507327        0.2462697815
 C          3.3813628008       -1.3629620837       -1.0766011045
 C          3.9806526237       -2.4367130699       -1.9503168907
 C          5.1951128749       -3.2003368381       -1.4049531763
 C          6.1314264008       -2.3766064336       -0.5088409217
 H          7.1558877055       -2.4880167296       -0.8688083429
 H          5.8768937980       -1.3173718376       -0.5744580400
 C          6.0979074839       -2.8196721641        0.9558181033
 H          6.0998741944       -3.9112768737        0.9916258846
 H          7.0105782799       -2.4751883862        1.4479934991
 C          4.9181179870       -2.2946327312        1.7729745276
 H          5.0308895505       -1.2195697121        1.9375900348
 H          4.9494243019       -2.7733631423        2.7547500432
 C          3.5293245615       -2.5277146032        1.1560247384
 H          3.4794926594       -3.4879307129        0.6484885757
 H          2.7971067984       -2.5237418459        1.9681958955
 H          5.7496466239       -3.5677459511       -2.2700494341
 H          4.8577552431       -4.0772152224       -0.8541456564
 H          4.2551342322       -1.9262612811       -2.8765686520
 H          3.1909962742       -3.1514458254       -2.1998141945
 O          3.0505147022       -0.2889470228       -1.8485015827
 C          2.4594374239        0.8440133686       -1.3122546128
 O          2.2181474273        1.7388669822       -2.1433616949
 O          2.2300943997       -0.2643128696        2.1235500048
 C          1.5448833897        2.0878111698        0.6649578692
 C          0.1768168438        2.2861439229        0.0582985552
 C         -0.2567157021        3.4866140064       -0.4863889821
 C         -1.5267421302        3.5900564217       -1.0286774635
 C         -2.3884052781        2.5095201123       -1.0379236269
 C         -1.9702567157        1.3063356395       -0.4823958278
 C         -0.7003552585        1.2075975289        0.0651290429
 H         -0.3729773460        0.2708355801        0.5001640994
 N         -2.8287683906        0.1870906645       -0.4968496469
 S         -4.4099764636        0.4273442724        0.0526633339
 O         -5.1513913149        1.1184414306       -0.9713829320
 O         -4.3944824622        1.0577094163        1.3548021566
 C         -4.9823029159       -1.2546162073        0.1804443129
 C         -5.3996428455       -1.8997901624       -0.9681875940
 C         -5.8232692205       -3.2161739641       -0.8798718828
 C         -5.8221105377       -3.8616353985        0.3479377368
 C         -5.4018344419       -3.2002923834        1.4920664785
 C         -4.9753089634       -1.8839166974        1.4105490826
 H         -4.6485093603       -1.3286518418        2.2753136495
 H         -5.4046809153       -3.7034698192        2.4456058285
 H         -6.1538217456       -4.8857568029        0.4145208634
 H         -6.1532851548       -3.7332919429       -1.7664002563
 H         -5.3918944977       -1.3554164245       -1.8979384273
 H         -2.4157527053       -0.5981861357       -0.0106893449
 H         -3.3788458139        2.5830941944       -1.4564097514
 H         -1.8498113037        4.5280064682       -1.4548483632
 H          0.3991713772        4.3413951962       -0.4934779169
 H          1.4098360264        1.8490479347        1.7307456902
 C          2.4489171662        3.2960569098        0.5486293490
 C          2.3378355289        4.4168585949        1.5372996603
 C          3.5216684547        3.4991730836        1.5748359499
 H          4.4798331767        3.8771286238        1.2512077583
 H          3.5852894471        2.7775919465        2.3763689790
 H          2.4850206420        5.4281970367        1.1896705968
 H          1.5979706990        4.3224597546        2.3178233247
 H          2.6888935659        3.5400278213       -0.4800471272
