  62
        -98.94453343
 C         -2.6216001057        1.2566028728       -0.1161863166
 C         -2.6286664906        0.2938346334        0.9221055129
 C         -3.4958891514       -0.8752769183        0.7097242948
 C         -4.2276620678       -0.9666882399       -0.4147516330
 C         -5.1061067026       -2.1272676975       -0.7792824918
 C         -4.3365765348       -3.1702582683       -1.6016811604
 C         -2.9898155640       -3.5665778522       -0.9958003937
 H         -2.5543503113       -4.3313588380       -1.6427190091
 H         -2.3147937601       -2.7072146282       -1.0221958440
 C         -3.0712496450       -4.1009413373        0.4409747471
 H         -4.0938803023       -4.4063580938        0.6659481926
 H         -2.4412783615       -4.9895981427        0.5191830823
 C         -2.5883932536       -3.1201439106        1.5113989186
 H         -1.5988748029       -2.7406051566        1.2394989969
 H         -2.4784025032       -3.6696737574        2.4504604032
 C         -3.5108418893       -1.9250838300        1.7850640721
 H         -3.1532826827       -1.4311694787        2.6933112986
 H         -4.5276260039       -2.2798627429        1.9647294299
 H         -4.1546349318       -2.7608055527       -2.5979305439
 H         -4.9635878773       -4.0573645838       -1.7074782024
 H         -5.4956951275       -2.5812161692        0.1296909879
 H         -5.9401927734       -1.7524896881       -1.3748196195
 O         -4.2117914180       -0.0149661901       -1.3812772177
 C         -3.4022079274        1.1005758897       -1.2668039377
 O         -3.4701000746        1.8804225834       -2.2374024088
 O         -1.9586482476        0.3840331893        1.9864187817
 C         -1.7506470029        2.5054355433       -0.0821438858
 C         -0.3253004123        2.1220936594       -0.4012974483
 C          0.1993602270        2.3526176887       -1.6684208641
 C          1.4846009808        1.9485407410       -1.9834291757
 C          2.2691850948        1.2997999471       -1.0462264323
 C          1.7485515550        1.0524581026        0.2168159490
 C          0.4673435296        1.4765861014        0.5368678848
 H          0.0624313109        1.2582274266        1.5133659052
 N          2.5291086039        0.3682714021        1.1694486575
 S          3.1160665261       -1.1391478393        0.7089033231
 O          2.2718257682       -1.7546590360       -0.2900041067
 O          3.2994443093       -1.8749677392        1.9410091760
 C          4.7150030552       -0.7691316452        0.0169565502
 C          5.6275119945       -0.1025884570        0.8113073007
 C          6.8777831469        0.1918313714        0.2915449237
 C          7.1938531265       -0.1853807319       -1.0053345480
 C          6.2682372014       -0.8576680783       -1.7885744163
 C          5.0151220784       -1.1542631612       -1.2748198255
 H          4.2610730930       -1.6697665963       -1.8482177161
 H          6.5155743251       -1.1508969206       -2.7962266303
 H          8.1674219731        0.0454579120       -1.4079792586
 H          7.6004242344        0.7139357511        0.8977131998
 H          5.3428938085        0.1681806027        1.8142641370
 H          2.0715448851        0.2961523348        2.0679991680
 H          3.2677710766        0.9739266149       -1.2880954438
 H          1.8783816880        2.1361595727       -2.9707847790
 H         -0.4194472110        2.8338636656       -2.4123648543
 H         -2.1169798110        3.1421108333       -0.8980942446
 C         -1.8693370515        3.2767996184        1.2168123869
 C         -1.4233520124        4.7065535250        1.2524560376
 C         -2.8829081426        4.3744213233        1.3238338424
 H         -3.3992023954        4.5079422768        2.2626512885
 H         -3.4958901582        4.5750486044        0.4570515846
 H         -0.9347916957        5.0717076074        2.1426975696
 H         -1.0459609556        5.1337921076        0.3357326689
 H         -1.7027559343        2.6733665675        2.0989518154
