  62
        -98.93560594
 C         -1.6840672974       -0.1968444428        0.1954702811
 C         -2.7767543055       -1.0157010298        0.5712770229
 C         -4.1185407976       -0.4016648939        0.5654727136
 C         -4.2290736437        0.9005666394        0.2448908928
 C         -5.4791584216        1.7328830528        0.1356400099
 C         -6.2781079079        1.4407675969       -1.1443205429
 C         -6.4390047011       -0.0400334066       -1.4776325941
 H         -6.9305145721       -0.1090381053       -2.4517372981
 H         -5.4513856326       -0.4930175164       -1.5814668691
 C         -7.2656988969       -0.8464045576       -0.4787686840
 H         -8.2614164136       -0.4046668083       -0.3986561008
 H         -7.3812760647       -1.8518253320       -0.8916587349
 C         -6.6755516848       -0.9769841907        0.9271933786
 H         -7.2261422643       -1.7721925972        1.4381900708
 H         -6.8342247210       -0.0713470460        1.5065157043
 C         -5.2032074748       -1.3734198592        0.9640961630
 H         -4.9521420376       -1.6890660006        1.9839055478
 H         -5.0557437391       -2.2652898127        0.3443246802
 H         -7.2616751592        1.9041219466       -1.0495596458
 H         -5.7606957266        1.9162986507       -1.9813350699
 H         -6.0978977509        1.5950860110        1.0174685046
 H         -5.1583724022        2.7768398231        0.1145068403
 O         -3.1440432940        1.6630091320       -0.0712423112
 C         -1.8548912613        1.1555138378       -0.1008850538
 O         -0.9877198221        2.0002987781       -0.3916228941
 H          1.9224844585        0.5081421458       -0.7692614554
 C          1.7690642155        0.6342734423        0.2886561635
 C          0.6801787021        0.0555244720        0.9192239161
 C          0.4893573930        0.2983598463        2.2777597231
 C          1.3588633010        1.1085559186        2.9802733198
 C          2.4547563914        1.6733206919        2.3503332140
 C          2.6548371969        1.4361753805        0.9967537665
 N          3.7582964557        1.9841199692        0.3286561851
 S          4.5204929909        1.1085003545       -0.8690187480
 O          5.8781588964        1.6119931875       -0.8747471804
 O          3.8105317177        1.2185995322       -2.1181297576
 C          4.5008030760       -0.5855211938       -0.3045538457
 C          3.9751718286       -1.5684155101       -1.1176291884
 C          3.9549737006       -2.8775239364       -0.6630589682
 C          4.4567552172       -3.1790887458        0.5932144956
 C          4.9888560868       -2.1817228716        1.3960101722
 C          5.0140028235       -0.8721918113        0.9450231851
 H          5.4278008006       -0.0772338481        1.5435319987
 H          5.3810747642       -2.4204429795        2.3713705515
 H          4.4334021766       -4.1975968261        0.9472737694
 H          3.5440522047       -3.6549738236       -1.2875794876
 H          3.5894741173       -1.2883494183       -2.0850977182
 H          4.4095112921        2.4895585214        0.9101635373
 H          3.1389991962        2.3039680856        2.8972075147
 H          1.1903587214        1.2964462266        4.0299369617
 H         -0.3631183647       -0.1480369626        2.7716062981
 C         -0.3037754000       -0.8281388678        0.1970700280
 H         -0.4299946653       -1.7484378946        0.7919611611
 C          0.1885201043       -1.2658055014       -1.1736054294
 C         -0.7679512902       -1.6692333075       -2.2542082428
 C          0.0335214159       -0.4113683079       -2.3944713952
 H          0.8426706409       -0.3857481189       -3.1107376787
 H         -0.4676051884        0.5373460288       -2.2810084315
 H         -0.5152923440       -2.5150265621       -2.8756481271
 H         -1.8244956563       -1.5782755253       -2.0476876931
 H          1.1045477404       -1.8446463707       -1.1017478834
 O         -2.6424269912       -2.2237439948        0.9045141766
