  62
        -98.94758172
 C         -2.5333918893       -0.2748099278        0.0075137829
 C         -2.2316042269       -1.2874183351       -0.9328162425
 C         -1.6066809433       -2.5021194746       -0.3956023423
 C         -1.3799501806       -2.5938895278        0.9274262376
 C         -0.7488945076       -3.7731591197        1.6099306126
 C          0.7691924204       -3.6064783869        1.7515239252
 C          1.4793963217       -3.2183222881        0.4544215387
 H          1.1989233992       -2.1970325122        0.1853143475
 H          2.5514665171       -3.2015973923        0.6667382652
 C          1.2103016908       -4.1509845179       -0.7342063686
 H          2.1552394551       -4.3341671025       -1.2498186480
 H          0.8407852234       -5.1133322676       -0.3767754932
 C          0.2411771543       -3.5845727868       -1.7741991259
 H          0.5358155616       -2.5600558708       -2.0198471191
 H          0.3312720558       -4.1815443416       -2.6860629420
 C         -1.2401476388       -3.5824262243       -1.3733539361
 H         -1.5203210592       -4.5658589841       -0.9890898176
 H         -1.8301936627       -3.3831590599       -2.2729039950
 H          0.9641439689       -2.8213461281        2.4857881042
 H          1.1829429534       -4.5437035042        2.1298043212
 H         -0.9743837066       -4.6740992622        1.0420096428
 H         -1.1872626756       -3.8624812206        2.6058145972
 O         -1.6973061081       -1.6068571301        1.8036829649
 C         -2.2304556113       -0.4059886926        1.3627445927
 O         -2.4122764938        0.4368022643        2.2631244957
 O         -2.4813371305       -1.1809447529       -2.1658442731
 C         -3.0830337275        1.0507428600       -0.4913825177
 C         -2.0515564846        2.1231749255       -0.2356082115
 C         -2.3374695392        3.3698781270        0.3045605189
 C         -1.3160050514        4.2697953559        0.5598499727
 C          0.0032895854        3.9418418320        0.3064002998
 C          0.2962271523        2.7027557262       -0.2523781878
 C         -0.7312785562        1.8237343567       -0.5446359284
 H         -0.4917959323        0.8667176194       -0.9849840605
 N          1.6188181577        2.3104284841       -0.5320801000
 S          1.9779024063        0.6780839561       -0.2516473706
 O          1.6338057150       -0.0781234766       -1.4298852468
 O          1.3873426686        0.2488297661        0.9950069714
 C          3.7529420714        0.7589828531       -0.1013397460
 C          4.5142668369        0.8164031936       -1.2534576960
 C          5.8919702771        0.9157640610       -1.1413517348
 C          6.4819943542        0.9556023970        0.1133916850
 C          5.7051659476        0.8941113543        1.2605494400
 C          4.3263593079        0.7965859090        1.1553461555
 H          3.6811520341        0.7376153848        2.0175014721
 H          6.1662157643        0.9211308793        2.2346984142
 H          7.5544391598        1.0321997906        0.1979830938
 H          6.4991446736        0.9608229264       -2.0309269633
 H          4.0104122877        0.7721848428       -2.2048553442
 H          2.3035326724        2.9164545850       -0.0997667966
 H          0.7990280624        4.6330851576        0.5392462217
 H         -1.5501565647        5.2337313429        0.9857980199
 H         -3.3561429385        3.6311452976        0.5404868508
 H         -3.1929894504        0.9304819577       -1.5800836276
 C         -4.4388416041        1.3515604520        0.1090799910
 C         -5.4270601461        2.1905200533       -0.6434426469
 C         -5.6550088570        0.7172819277       -0.4942635616
 H         -6.4395026244        0.3781093632        0.1651943738
 H         -5.5060554373        0.0846428428       -1.3572380430
 H         -6.0606463737        2.8641248963       -0.0865491053
 H         -5.1314980870        2.5605420735       -1.6135291556
 H         -4.4034646049        1.4406961061        1.1888486162
