  62
        -98.94946492
 C         -2.0557031881       -0.3534898204       -0.3179025584
 C         -1.4074563744       -1.2852727274       -1.1614036692
 C         -1.0564324051       -2.5710195593       -0.5478710414
 C         -1.3118095698       -2.7769635767        0.7571012680
 C         -1.0146751722       -4.0334308607        1.5300833676
 C          0.4343280976       -4.1237443636        2.0281700074
 C          1.4688968034       -4.4610578650        0.9539492856
 H          2.3920262161       -4.7285880677        1.4720901934
 H          1.1401721032       -5.3388582732        0.3956790322
 C          1.7673158045       -3.3096639690       -0.0161631495
 H          1.4350766692       -2.3683691629        0.4297856664
 H          2.8481073337       -3.2248128286       -0.1572789130
 C          1.1419138450       -3.4723641948       -1.4015769369
 H          1.4063723779       -2.5992007334       -2.0016735053
 H          1.5657727868       -4.3532821827       -1.8894609764
 C         -0.3863666411       -3.6071125380       -1.4016991182
 H         -0.7406534087       -3.4669659768       -2.4263434112
 H         -0.6723394044       -4.6047325866       -1.0679533790
 H          0.4692359912       -4.9010325034        2.7954709269
 H          0.7009021313       -3.1743791465        2.5002829549
 H         -1.6781436157       -4.0269293744        2.3976643625
 H         -1.2476073867       -4.9072537929        0.9202588910
 O         -1.9115005961       -1.8452346849        1.5431413493
 C         -2.2877545703       -0.6126323210        1.0332694932
 O         -2.8251517214        0.1436764004        1.8658990030
 H          0.0944388874        1.0593881106       -0.2004792669
 C         -0.4157533551        1.9129895524        0.2140153005
 C         -1.7689452381        2.0793582271       -0.0514659212
 C         -2.4156691211        3.1895720208        0.4728323023
 C         -1.7264072276        4.0751870900        1.2845132093
 C         -0.3978244426        3.8649263697        1.6029520889
 C          0.2646925036        2.7660522197        1.0638713678
 N          1.6122180168        2.5238451818        1.3552789024
 S          2.3202033502        1.0130613950        1.2392746057
 O          1.3903434981       -0.0639950576        1.4822084910
 O          3.4531524667        1.0907286765        2.1379783979
 C          2.9265105222        0.9906143251       -0.4353851707
 C          4.0088247849        1.7992393047       -0.7267657199
 C          4.4955901098        1.8314549316       -2.0228033135
 C          3.8934745775        1.0597282206       -3.0057142858
 C          2.8107986341        0.2512722026       -2.6982758921
 C          2.3216970774        0.2142596190       -1.4016255937
 H          1.4790152219       -0.4065682493       -1.1388069293
 H          2.3335236484       -0.3480279460       -3.4577530415
 H          4.2690342947        1.0858904476       -4.0164264156
 H          5.3395436798        2.4573715264       -2.2639322035
 H          4.4522612166        2.3738650829        0.0692660432
 H          2.0042349782        3.0806204180        2.0989656195
 H          0.1235055808        4.5367603956        2.2676118760
 H         -2.2402845400        4.9308138875        1.6961498595
 H         -3.4608932229        3.3519771661        0.2667461617
 C         -2.4468855465        1.0076506164       -0.8694613385
 H         -2.0479589035        1.0389716371       -1.8942867603
 C         -3.9531752908        1.1480803480       -0.9249183922
 C         -4.5919437350        2.0426866319       -1.9439742099
 C         -4.6949991865        0.5544720143       -2.0835747633
 H         -5.6472999141        0.0810069084       -1.8975063892
 H         -4.1084631238        0.0681464346       -2.8492077996
 H         -5.4782175123        2.5919487168       -1.6642741826
 H         -3.9402725410        2.5709370122       -2.6231542164
 H         -4.4119936439        1.0738238512        0.0549723611
 O         -1.1365440904       -1.0557488434       -2.3719048650
