  62
        -98.94489200
 C         -2.0776689613       -1.4057097889        0.1012809404
 C         -2.0162327407       -0.5385339088       -1.0162682494
 C         -2.8571735099        0.6662492718       -0.9421256894
 C         -3.6208635598        0.8804776722        0.1437986806
 C         -4.4744151390        2.0935485127        0.3704877907
 C         -3.6984518782        3.1905347121        1.1129146309
 C         -2.3257431880        3.4947884312        0.5123758510
 H         -1.8938928675        4.3107285409        1.0952808211
 H         -1.6777951986        2.6249574808        0.6422635509
 C         -2.3540924376        3.8888407714       -0.9709737489
 H         -3.3624867374        4.1918786621       -1.2550928590
 H         -1.7063693470        4.7559983210       -1.1171711788
 C         -1.8669921583        2.7981718112       -1.9270775690
 H         -1.7137417680        3.2509133012       -2.9104895490
 H         -0.9024183886        2.4126921405       -1.5874846690
 C         -2.8152558691        1.6073914819       -2.1134036792
 H         -3.8174602689        1.9662020326       -2.3561007793
 H         -2.4481490995        1.0187801317       -2.9592331793
 H         -3.5556804485        2.8722744519        2.1480582109
 H         -4.3058196676        4.0974982025        1.1171449010
 H         -4.8265786586        2.4681667331       -0.5887155793
 H         -5.3358084392        1.7993863132        0.9725739306
 O         -3.6650725004        0.0209885821        1.1925549005
 C         -2.8986755412       -1.1297816685        1.2006749104
 O         -3.0358569217       -1.8254566085        2.2264821103
 H          0.6353744886       -1.5899136906       -1.3903845694
 C          1.0172863384       -1.8222556010       -0.4079681094
 C          0.1699725780       -2.3881535005        0.5339131705
 C          0.6668683477       -2.6427891310        1.8073032705
 C          1.9833535379       -2.3536575919        2.1208692706
 C          2.8285261483       -1.7999002124        1.1757311607
 C          2.3353050086       -1.5214032019       -0.0926601293
 N          3.1725411991       -0.9502861023       -1.0674837292
 S          4.1341074799        0.3578340269       -0.6723553290
 O          4.5404931904        0.9218433268       -1.9388613889
 O          5.1960792196       -0.0780325939        0.1998645310
 C          3.0723619807        1.4995410776        0.1931687011
 C          3.0522721906        1.5058031274        1.5732566611
 C          2.1941510511        2.3760103679        2.2266485111
 C          1.3815345618        3.2257981686        1.4930537212
 C          1.4199348018        3.2144015387        0.1070861612
 C          2.2660214113        2.3374586682       -0.5516316689
 H          2.3268441013        2.3020878783       -1.6277649389
 H          0.7926472623        3.8836855192       -0.4592929588
 H          0.7167271722        3.9047667990        2.0032457912
 H          2.1640579311        2.3895235778        3.3042875011
 H          3.7118598201        0.8444457169        2.1097375910
 H          2.7047021192       -0.7917957819       -1.9483140692
 H          3.8599409485       -1.5816600431        1.4000224308
 H          2.3574756377       -2.5650480823        3.1111165306
 H          0.0082835274       -3.0622629206        2.5542681204
 C         -1.2708380522       -2.6928355495        0.1985328203
 H         -1.7001550626       -3.2443357893        1.0452507803
 C         -1.3914914727       -3.5569020792       -1.0416510398
 C         -1.0530331137       -5.0129000095       -0.9457849999
 C         -2.4792730934       -4.5838611985       -1.1133915100
 H         -2.9636535535       -4.7559286280       -2.0629512300
 H         -3.1419319935       -4.6710077481       -0.2644030700
 H         -0.5552039340       -5.4826261897       -1.7802177499
 H         -0.7484650540       -5.3925763698        0.0178720901
 H         -1.1404610123       -3.0408132393       -1.9585545497
 O         -1.3064765707       -0.7368101192       -2.0391021994
