  62
        -98.94487235
 C          2.4558340500        1.1176881107       -0.0573385197
 C          3.5961046699        0.9253112705        0.7616419004
 C          4.6213344298        0.0205626103        0.2318367404
 C          4.4366050398       -0.5698963896       -0.9630181396
 C          5.4016179097       -1.4989155997       -1.6487351696
 C          5.3056232995       -2.9583258797       -1.1831977796
 C          5.8620986993       -3.2344526999        0.2141937004
 H          5.9332132691       -4.3186370999        0.3214875604
 H          6.8734358194       -2.8332951800        0.2869838505
 C          5.0022478193       -2.6806287798        1.3589425303
 H          4.0013441294       -2.4520183696        0.9849200203
 H          4.8874584692       -3.4450117598        2.1307580903
 C          5.5747127295       -1.4353770199        2.0359377204
 H          6.5157017494       -1.6868838101        2.5301015105
 H          4.8686558095       -1.1067208598        2.8026491604
 C          5.8226954797       -0.2581297399        1.0840998405
 H          6.0167192398        0.6334399800        1.6852974005
 H          6.6937853197       -0.4558295400        0.4599317605
 H          4.2596319494       -3.2709493796       -1.2278065497
 H          5.8640733494       -3.5652372898       -1.8996857696
 H          5.1640480898       -1.4616703297       -2.7140952296
 H          6.4205782598       -1.1373264199       -1.5071275395
 O          3.3249619499       -0.3628346894       -1.7180669097
 C          2.3050017400        0.4737219107       -1.2851406297
 O          1.3487856301        0.5620076309       -2.0800473898
 O          3.7514543599        1.4889914204        1.8771605904
 C          1.3621932101        2.0493606708        0.4368184003
 C          0.0980983600        1.2548918010        0.6487018202
 C          0.0261977798        0.3824656510        1.7322652301
 C         -1.0989702503       -0.3908306689        1.9415054700
 C         -2.1762948903       -0.3159575687        1.0743198500
 C         -2.1061625901        0.5345568014       -0.0196126500
 C         -0.9787290299        1.3232108512       -0.2189937699
 H         -0.9369743798        1.9737035512       -1.0779203999
 N         -3.1886315200        0.6325706616       -0.9054934301
 S         -4.0946683302       -0.7180277183       -1.3005228602
 O         -3.3119271904       -1.9317753284       -1.2699521702
 O         -4.7207890701       -0.3887591481       -2.5625141802
 C         -5.3451197303       -0.7605580081       -0.0313954103
 C         -6.0512647001        0.3983670420        0.2258775997
 C         -7.0348453902        0.3807314121        1.2015908697
 C         -7.2978009104       -0.7896653879        1.8977518696
 C         -6.5837021606       -1.9460858580        1.6249290896
 C         -5.5973640905       -1.9345065081        0.6507019197
 H         -5.0137097906       -2.8088780182        0.4092971497
 H         -6.7897970307       -2.8555472780        2.1661348396
 H         -8.0636620405       -0.8005734078        2.6571486896
 H         -7.5919841701        1.2784047222        1.4163824697
 H         -5.8192359199        1.2863183919       -0.3378822302
 H         -3.0039531499        1.2041756816       -1.7165977500
 H         -3.0520645804       -0.9250567885        1.2262220699
 H         -1.1417770305       -1.0601531589        2.7874124200
 H          0.8715532897        0.3152963308        2.4033187402
 H          1.7088416701        2.4064997707        1.4164566003
 C          1.1968373504        3.2401915709       -0.4835529097
 C          0.4690500805        4.4558728010        0.0051567403
 C          1.9538855605        4.4993538507       -0.1910723396
 H          2.3496352107        5.0659719907       -1.0206414196
 H          2.5871337705        4.5076451706        0.6838011904
 H         -0.1564050393        4.9970636011       -0.6883773497
 H          0.0911751805        4.4350355710        1.0159538603
 H          1.0847673504        2.9615675009       -1.5251554097
