  62
        -98.93567162
 C          0.7811899234        2.0284847340        0.5176706711
 C          1.5602268408        1.8085916491       -0.6424032372
 C          2.7664904846        0.9704193266       -0.4729077793
 C          3.0097078597        0.3797761655        0.7106378014
 C          4.1432185341       -0.5149646630        1.1665978405
 C          5.1062720961       -1.1354624715        0.1577097170
 C          4.4846540169       -2.1850902816       -0.7633763356
 H          5.2345796084       -2.4780411939       -1.5014215333
 H          4.2443164499       -3.0699897385       -0.1689482244
 C          3.2130871183       -1.7565619128       -1.4917633919
 H          2.8745030076       -2.6000989145       -2.0998105093
 H          2.4252260023       -1.5451059149       -0.7661076626
 C          3.3673825570       -0.5495933206       -2.4141087258
 H          2.4429512584       -0.4533341541       -2.9906394389
 H          4.1819795460       -0.7235913051       -3.1199992980
 C          3.6112661241        0.7920841682       -1.7024727214
 H          4.6636240860        0.9272072386       -1.4646272116
 H          3.3251947670        1.5927367289       -2.3910561310
 H          5.5945918154       -0.3596154375       -0.4245884085
 H          5.8883698920       -1.6312483924        0.7391919448
 H          4.7259952461        0.0833132634        1.8756446802
 H          3.6744588675       -1.3132350470        1.7494135038
 O          2.1901401073        0.5691417311        1.7859705107
 C          1.0844800623        1.3948150637        1.7250077052
 O          0.4524304610        1.4864652300        2.7947659103
 H         -0.7522872996        0.7854349704       -1.1536725851
 C         -1.6458450706        0.9381403235       -0.5643914946
 C         -1.6911291181        1.9856021647        0.3449691395
 C         -2.8498949753        2.1673089472        1.0896283080
 C         -3.9383932850        1.3286287306        0.9178635738
 C         -3.8852233018        0.2799006002        0.0169816868
 C         -2.7234633568        0.0793633771       -0.7178242588
 N         -2.6359253657       -1.0291694458       -1.5904304466
 S         -2.6146179438       -2.5262704388       -0.8346295381
 O         -2.2609654443       -3.4776136545       -1.8625090630
 O         -3.8847382747       -2.7279247810       -0.1860621952
 C         -1.3175560529       -2.4399432409        0.3893399801
 C         -1.5516572293       -1.7634007342        1.5709408128
 C         -0.5306972479       -1.6670228798        2.5024500323
 C          0.6955835834       -2.2600941150        2.2459897422
 C          0.9123598786       -2.9443662340        1.0602127562
 C         -0.0984147807       -3.0260249292        0.1154984501
 H          0.0316838050       -3.5440321260       -0.8212782242
 H          1.8637525163       -3.4142403506        0.8676141316
 H          1.4831865668       -2.1809121349        2.9790275414
 H         -0.6873542395       -1.1158934176        3.4156943144
 H         -2.5210759539       -1.3284624340        1.7506810855
 H         -1.8460464972       -0.9697988592       -2.2188786500
 H         -4.7084297514       -0.4049242769       -0.1055490391
 H         -4.8337845807        1.4850323150        1.4999400938
 H         -2.8889799650        2.9601026496        1.8219053486
 C         -0.4848540711        2.8697883937        0.5395026857
 H         -0.5472167914        3.2850259826        1.5582431572
 C         -0.4551712056        4.0430142759       -0.4292036241
 C         -1.2512648408        4.0766232414       -1.6955706949
 C         -1.6388244094        4.9567104376       -0.5477903226
 H         -1.4626323199        6.0187418385       -0.6268729889
 H         -2.5317656279        4.6961372386       -0.0005500980
 H         -0.7913226695        4.5195238528       -2.5655100123
 H         -1.8794763470        3.2292129754       -1.9235916680
 H          0.5228118108        4.5107986153       -0.4659233761
 O          1.2905252600        2.2750248093       -1.7791274422
