  62
        -98.95134568
 C         -2.3361678102       -0.0851536261        0.1168625997
 C         -1.6193661917        0.4862802854       -0.9608063005
 C         -1.4581178457        1.9445563758       -0.9209123312
 C         -1.8953565377        2.6327134651        0.1492436085
 C         -1.8026123618        4.1215785255        0.3456123578
 C         -0.4365309232        4.5944385295        0.8611812277
 C          0.6823912069        4.6062542821       -0.1808149822
 H          0.3399370155        5.1297455307       -1.0746149525
 H          1.5059150752        5.1848893345        0.2425332076
 C          1.2082984007        3.2160915933       -0.5644478415
 H          2.3012866507        3.2372340963       -0.5918210714
 H          0.9306308027        2.4910441329        0.2046447588
 C          0.7346168822        2.7109422214       -1.9264302813
 H          1.1548529050        1.7151088525       -2.0787582208
 H          1.1213247305        3.3646385321       -2.7121057916
 C         -0.7885336875        2.6191067571       -2.0820484714
 H         -1.2087443002        3.6157158359       -2.2209028819
 H         -1.0023560658        2.0233501961       -2.9732814212
 H         -0.1405143915        3.9606357007        1.7010882380
 H         -0.5642455960        5.6118370793        1.2389647472
 H         -2.5613646226        4.3838496137        1.0862420376
 H         -2.0376084432        4.6327468544       -0.5888010525
 O         -2.5129942962        2.0358068139        1.2032895787
 C         -2.7540334624        0.6728161332        1.2098099793
 O         -3.3464586114        0.2586353421        2.2291593794
 O         -1.1476287598       -0.1842606338       -1.9168373102
 C         -2.5962688561       -1.5816548468        0.1531547204
 C         -1.2824878241       -2.3239509232        0.2032224308
 C         -0.9968628709       -3.4470792827       -0.5629793887
 C          0.2418984108       -4.0593211993       -0.4728268783
 C          1.2261568693       -3.5528611562        0.3567117716
 C          0.9466436762       -2.4334555666        1.1320338011
 C         -0.3085721654       -1.8510753001        1.0732176007
 H         -0.5154440979       -0.9866923104        1.6872464803
 N          1.9202624745       -1.8498959435        1.9701078109
 S          2.3609520802       -0.2699247725        1.6162287802
 O          3.4418010592        0.0312498809        2.5301863301
 O          1.2093966578        0.5912628944        1.6858065497
 C          3.0026972006       -0.3636957815       -0.0456927897
 C          2.1301111611       -0.5293724644       -1.1027228297
 C          2.6506720417       -0.6895472535       -2.3784251796
 C          4.0222443216       -0.6793401798       -2.5761610195
 C          4.8851528011       -0.5103148569       -1.5034086695
 C          4.3730199706       -0.3585660278       -0.2254006096
 H          5.0035860501       -0.2279193856        0.6392398004
 H          5.9520449511       -0.5009387941       -1.6580328394
 H          4.4190141221       -0.8034922792       -3.5713614594
 H          1.9686268421       -0.8190119658       -3.2038535896
 H          1.0645850711       -0.5260935572       -0.9345807398
 H          2.7560641560       -2.4097909612        2.0727324512
 H          2.2009282706       -4.0142789535        0.4053103519
 H          0.4501478232       -4.9320138290       -1.0725446778
 H         -1.7424566498       -3.8400871351       -1.2344646985
 H         -3.1279805657       -1.7720722479        1.0974374004
 C         -3.4831377249       -1.9953912598       -1.0024795395
 C         -4.4045992316       -3.1689668823       -0.8651593491
 C         -4.9612736655       -1.7780826038       -0.8915382598
 H         -5.5022621163       -1.4524481157       -1.7671911700
 H         -5.3315222867       -1.3552824744        0.0315328100
 H         -4.5687766898       -3.7998211631       -1.7256835188
 H         -4.4074235303       -3.6958712419        0.0771218612
 H         -3.0226816853       -1.8132523590       -1.9663713996
