  62
        -98.94273714
 C         -1.7799473816       -1.5167227883        0.2446103997
 C         -1.4429249858       -0.1598410326        0.0039484983
 C         -2.4663017901        0.8247187616        0.3891695451
 C         -3.6132933116        0.4226394964        0.9624230265
 C         -4.7409225066        1.3117764844        1.4114468436
 C         -5.7141940753        1.6983501359        0.2891509182
 C         -5.1734999939        2.7081041870       -0.7243609761
 H         -6.0236620177        3.0523101860       -1.3168104094
 H         -4.7745764468        3.5739019780       -0.1950031972
 C         -4.1065374178        2.1454388188       -1.6740234389
 H         -4.3315355524        2.4538242981       -2.6976050086
 H         -4.1423896993        1.0535918881       -1.6553039302
 C         -2.6802083658        2.6007795794       -1.3647815295
 H         -2.6027853619        3.6804317689       -1.5103959018
 H         -2.0045146255        2.1156524547       -2.0738919586
 C         -2.2034501685        2.2614086784        0.0534108019
 H         -1.1229816883        2.4130738017        0.0985866400
 H         -2.6854888038        2.9160137586        0.7787623289
 H         -6.6003491794        2.1293235596        0.7609265713
 H         -6.0256514082        0.7899135042       -0.2320164816
 H         -4.3366059285        2.2141257947        1.8708304313
 H         -5.2943549514        0.7536671618        2.1697799280
 O         -3.8763399421       -0.8856867342        1.2246197294
 C         -2.9782372015       -1.8777940013        0.8688722011
 O         -3.3530453602       -3.0305921089        1.1645700247
 O         -0.3641702533        0.2326523900       -0.5077390483
 C         -0.8427934229       -2.6614240827       -0.1067635052
 C          0.5487992343       -2.3367786332        0.3720947405
 C          0.8497106152       -2.4519553944        1.7250990965
 C          2.1008228589       -2.1056508280        2.2014963883
 C          3.0704335939       -1.6220245476        1.3409890655
 C          2.7719346070       -1.4867105854       -0.0084357774
 C          1.5247094950       -1.8611443615       -0.4885397436
 H          1.2998705686       -1.7396409053       -1.5364984315
 N          3.7382018381       -0.9715512483       -0.8926499950
 S          4.5310911834        0.4424220721       -0.4772721267
 O          5.1057539060        0.9223140350       -1.7145018532
 O          5.4661578438        0.1646950228        0.5855832499
 C          3.2816159554        1.5771273688        0.0964938890
 C          2.5394175132        2.2632945645       -0.8430720485
 C          1.5605755604        3.1422692395       -0.4125538508
 C          1.3340027756        3.3103295237        0.9446714634
 C          2.0816524160        2.6070250050        1.8755914209
 C          3.0678454026        1.7320159790        1.4506068062
 H          3.6786675472        1.1784990374        2.1445610909
 H          1.8987240693        2.7367754170        2.9304267559
 H          0.5701625917        3.9950243540        1.2798651088
 H          0.9739652879        3.6872617804       -1.1350639790
 H          2.7482369665        2.1116981001       -1.8898174051
 H          3.4054634092       -0.9067194987       -1.8441788723
 H          4.0490413766       -1.3410590915        1.6949681873
 H          2.3228511518       -2.2076216633        3.2530854600
 H          0.0855270930       -2.8091280029        2.4021066406
 H         -1.2123343350       -3.5223031763        0.4726239332
 C         -0.8830248950       -3.0725163882       -1.5719101957
 C         -2.1897138852       -3.1393406167       -2.3031358598
 C         -1.1712805523       -2.1084418751       -2.6816305102
 H         -0.6423081923       -2.2323035856       -3.6157243733
 H         -1.3600941358       -1.0789859535       -2.4211610452
 H         -2.3638283116       -3.9662593880       -2.9749927309
 H         -3.0726025536       -2.8171042100       -1.7701040228
 H         -0.1694016247       -3.8624492471       -1.7870510949
