  62
        -98.93918570
 C          1.5221292513        1.3460285107       -0.3793365884
 C          1.3897402646       -0.0422394405       -0.6087818168
 C          2.3436925177       -0.9238911520        0.0931484399
 C          3.2548211560       -0.3847568416        0.9195934120
 C          4.3217284922       -1.0848812064        1.7168841237
 C          5.6392723327       -1.1717248062        0.9275673734
 C          5.7737310088       -2.4017687060        0.0313867389
 H          6.6905367315       -2.2819833774       -0.5503000534
 H          5.8945865089       -3.2892523810        0.6559891139
 C          4.6066414664       -2.6332041262       -0.9306321095
 H          4.3101141239       -1.6837232697       -1.3798782011
 H          4.9584537534       -3.2788924823       -1.7374075035
 C          3.3913635695       -3.2902158229       -0.2588820564
 H          3.6715686469       -3.6432060859        0.7329570821
 H          3.0944699070       -4.1738627038       -0.8280172448
 C          2.1513467685       -2.3948051452       -0.1611495212
 H          1.5988042040       -2.4446836135       -1.1051969474
 H          1.4767263597       -2.7849079812        0.6104398577
 H          5.7289028028       -0.2644878596        0.3247319988
 H          6.4703182772       -1.1765318959        1.6357993670
 H          4.4885773019       -0.4719083857        2.6054464603
 H          3.9843178435       -2.0673009725        2.0336640022
 O          3.3549505481        0.9611638781        1.1101589901
 C          2.4998316230        1.8457108900        0.4856416842
 O          2.7097576075        3.0437649952        0.7666950341
 H         -1.2238719356        0.5323433296       -0.2078903015
 C         -1.4219813769        1.4901892060        0.2422537279
 C         -0.5984953745        2.5697398076       -0.0492195722
 C         -0.8645373828        3.7974604952        0.5441210282
 C         -1.9221685320        3.9360036316        1.4252732368
 C         -2.7154421071        2.8500378782        1.7441751523
 C         -2.4586660591        1.6152991197        1.1546647125
 N         -3.2565025411        0.5089859391        1.4681440452
 S         -2.6811970600       -1.0662685757        1.5101746278
 O         -3.4671537872       -1.6953901735        2.5539949294
 O         -1.2493667681       -1.1164586358        1.6789394083
 C         -3.2068610441       -1.7325322502       -0.0550159289
 C         -2.3074429882       -1.9639766252       -1.0743010730
 C         -2.7794187250       -2.4692425472       -2.2773187744
 C         -4.1299868099       -2.7320631734       -2.4397531166
 C         -5.0211327937       -2.4951754976       -1.4032230542
 C         -4.5574257594       -1.9913239553       -0.2000725509
 H         -5.2117050650       -1.8052912306        0.6353855577
 H         -6.0716599231       -2.7016132205       -1.5303351895
 H         -4.4890889504       -3.1243197225       -3.3782783829
 H         -2.0820487631       -2.6481057639       -3.0802431452
 H         -1.2613154154       -1.7392256143       -0.9328235647
 H         -3.9342028167        0.6709741970        2.1981249765
 H         -3.5255740012        2.9506516126        2.4506170413
 H         -2.1193061185        4.8939283924        1.8823759786
 H         -0.2220646147        4.6387712572        0.3295717514
 C          0.5911306866        2.3979446957       -0.9653049754
 H          1.1597184172        3.3382731443       -0.9495418259
 C          0.1520325325        2.1307245033       -2.3903315244
 C         -0.2854510732        3.2850541759       -3.2393853610
 C          1.0147791674        2.5956490364       -3.5229314263
 H          1.0915041868        1.9715342225       -4.4003497448
 H          1.9309316019        3.1118269348       -3.2740438653
 H         -0.2500066159        4.2714206471       -2.8019542444
 H         -1.1059540554        3.1367114556       -3.9242024792
 H         -0.3648027324        1.1892031548       -2.5146737068
 O          0.5281379060       -0.5556185970       -1.3709312936
