  62
        -98.94381696
 C          1.9322819004        1.2592334684        0.1458084807
 C          2.4633397500        0.4207613682        1.1582448007
 C          3.8232992400       -0.0789436821        0.9361650410
 C          4.4820710803        0.2601139179       -0.1871172389
 C          5.8863616603       -0.1431025824       -0.5465509486
 C          5.9913625701       -1.5256624723       -1.2044227587
 C          5.7692034597       -2.7110977824       -0.2643938789
 H          6.0823069796       -3.6088817324       -0.8010575889
 H          6.4179734495       -2.6097933026        0.6062342313
 C          4.3149649295       -2.8922328221        0.1928586308
 H          4.0332653493       -3.9439562420        0.1034653707
 H          3.6517377898       -2.3281361819       -0.4674887293
 C          4.0479117593       -2.4734318922        1.6387629808
 H          2.9828547393       -2.6110641120        1.8429789506
 H          4.6065939690       -3.1222828823        2.3170477109
 C          4.4069492596       -1.0146908723        1.9514022910
 H          3.9819394894       -0.7582392723        2.9249195309
 H          5.4891783096       -0.8966387525        2.0003495812
 H          6.9945273102       -1.6092677725       -1.6287477785
 H          5.2765769003       -1.5756369521       -2.0291704289
 H          6.2515544206        0.6031120476       -1.2554041885
 H          6.5151583901       -0.1138456726        0.3437712415
 O          3.9315426807        1.0492979881       -1.1451144089
 C          2.6396719808        1.5451348084       -1.0225710992
 O          2.2646510811        2.2168356485       -2.0009420292
 H         -0.5436196301       -0.5663948811        0.9379214700
 C         -0.8752560598       -0.2332930710       -0.0372056701
 C         -0.4187620495        0.9857197590       -0.5233878099
 C         -0.8375906191        1.4003720992       -1.7811807199
 C         -1.6885500991        0.6067580494       -2.5312416802
 C         -2.1488182595       -0.6018915505       -2.0405382004
 C         -1.7357405898       -1.0234669407       -0.7832259803
 N         -2.2487327802       -2.2290505607       -0.2571124105
 S         -3.9217610803       -2.2507610403       -0.0996466609
 O         -4.2025651107       -3.1793385904        0.9723413890
 O         -4.5150664100       -2.5600240801       -1.3758231610
 C         -4.3284376800       -0.5797727003        0.3757799792
 C         -4.8709747896        0.2858153599       -0.5519779409
 C         -5.0756240294        1.6085452999       -0.1936240308
 C         -4.7314450896        2.0415113797        1.0772744293
 C         -4.1948135300        1.1575842096        2.0010327894
 C         -3.9858616502       -0.1654013205        1.6476346293
 H         -3.5713001405       -0.8805166506        2.3404514293
 H         -3.9304781201        1.4957000094        2.9903936394
 H         -4.8822273894        3.0739427998        1.3510521794
 H         -5.4940146991        2.2982883301       -0.9085537908
 H         -5.1217446595       -0.0905630499       -1.5298692210
 H         -1.8188738605       -2.4891429908        0.6196434295
 H         -2.8253695795       -1.2236575503       -2.6046041206
 H         -2.0013838388        0.9367577496       -3.5100647202
 H         -0.4787731288        2.3353899491       -2.1781324397
 C          0.5212231405        1.7896343587        0.3403558604
 H          0.2780358002        1.5673461887        1.3885032203
 C          0.4040446809        3.2831324287        0.1253686605
 C         -0.8489408791        3.9745165890        0.5715156303
 C          0.4343988708        4.1966668686        1.3122584106
 H          0.9299949610        5.1507997985        1.2132581808
 H          0.5472536205        3.7471848185        2.2880418606
 H         -1.2384086988        4.7775123091       -0.0346512797
 H         -1.6085255393        3.3665911691        1.0399730201
 H          0.8834228611        3.6307700887       -0.7805501893
 O          1.8297145498        0.1102924083        2.2032442806
