  62
        -98.93977457
 C          2.3440527004        1.0040002522        0.3973701492
 C          2.6127500748       -0.0055887371       -0.5593172512
 C          3.5861798538       -1.0329539522       -0.1516127663
 C          4.1180384563       -0.9946475988        1.0827016948
 C          5.1467101915       -1.9527123747        1.6077661959
 C          6.5691941289       -1.4384099691        1.3461823153
 C          6.8069815175       -0.9872364328       -0.0949076824
 H          6.1931017408       -0.1068357878       -0.2986620681
 H          7.8507821050       -0.6749971065       -0.1702482574
 C          6.5172881066       -2.0616248251       -1.1523788373
 H          6.4992259619       -3.0466510947       -0.6847204957
 H          7.3304219266       -2.0638923253       -1.8813127258
 C          5.2197460561       -1.8489250792       -1.9344599203
 H          5.1923386692       -0.8298992660       -2.3289280212
 H          5.2230743349       -2.5297095671       -2.7900008166
 C          3.9218491967       -2.0996830405       -1.1562569235
 H          3.0986457574       -2.1032885083       -1.8770527931
 H          3.9631647087       -3.0806705464       -0.6784824386
 H          7.2751477019       -2.2303288110        1.6026040661
 H          6.7568216445       -0.5884441471        2.0062632112
 H          4.9999056313       -2.0574529829        2.6839997740
 H          5.0072657024       -2.9231979102        1.1355384517
 O          3.8055866235       -0.0344229403        1.9892527244
 C          2.9315052552        0.9880837317        1.6667668872
 O          2.7577910748        1.8179029371        2.5809542848
 H          0.0174854453        0.0336132560       -0.7681754994
 C         -0.5837155410        0.6485778250       -0.1144087380
 C         -0.0271905944        1.7918718621        0.4425274347
 C         -0.8185863735        2.5824776232        1.2667077405
 C         -2.1330037323        2.2336198986        1.5248413872
 C         -2.6827797587        1.0922775245        0.9692339921
 C         -1.9003967184        0.2958998829        0.1429920565
 N         -2.4455540570       -0.8723782072       -0.4202093992
 S         -3.8863384984       -0.7218465524       -1.2714998783
 O         -3.9019844552       -1.8320133069       -2.1983564253
 O         -4.0241866826        0.5972466977       -1.8446600766
 C         -5.1389335944       -0.9835039641       -0.0334661311
 C         -5.0885201794       -2.1490011819        0.7060000156
 C         -6.0597136763       -2.3729462151        1.6685938222
 C         -7.0610041312       -1.4347872061        1.8720366084
 C         -7.0999841211       -0.2716258589        1.1186080958
 C         -6.1304276656       -0.0407469822        0.1549269923
 H         -6.1165547854        0.8516590656       -0.4502485363
 H         -7.8794334551        0.4560279333        1.2779208197
 H         -7.8154807087       -1.6118304674        2.6221943664
 H         -6.0326932313       -3.2763337066        2.2564052823
 H         -4.2958524770       -2.8529951728        0.5144782225
 H         -1.7741233223       -1.4031900620       -0.9572047650
 H         -3.7053216460        0.8154035151        1.1676194602
 H         -2.7360868822        2.8562065134        2.1678210778
 H         -0.3935064646        3.4693784155        1.7134985386
 C          1.4004637781        2.1686504158        0.1401298179
 H          1.6978526254        2.9419464837        0.8656639994
 C          1.5706310055        2.7675998102       -1.2510066712
 C          0.5323691504        2.6947835651       -2.3265469229
 C          0.8008313722        3.9961533103       -1.6361388609
 H          1.3092013012        4.7784854821       -2.1789687816
 H          0.0546984918        4.3513168933       -0.9412633706
 H         -0.3974469771        2.1881895263       -2.1173705144
 H          0.8747957377        2.5616664887       -3.3417471116
 H          2.6025072428        2.7206887315       -1.5847156567
 O          2.0765941578       -0.0712287320       -1.6969953010
