  62
        -98.94627979
 C         -1.8105032384       -1.0421135473       -0.2968140852
 C         -3.1664665129       -1.3026215717        0.0145396780
 C         -4.1251372159       -0.2719122054       -0.3988612224
 C         -3.6895307949        0.8229561238       -1.0487766127
 C         -4.5479687182        1.9491722495       -1.5577153421
 C         -4.8790694579        3.0108371595       -0.4997509290
 C         -5.8866991649        2.5759788330        0.5651192958
 H         -6.1893876045        3.4748347013        1.1059771778
 H         -6.7763655738        2.1739845591        0.0793758890
 C         -5.3419161236        1.5541947944        1.5728987420
 H         -4.2503451412        1.5470872117        1.5295613357
 H         -5.6200770396        1.8565822835        2.5850419140
 C         -5.8543942510        0.1283208643        1.3695697344
 H         -6.9327976038        0.0982693785        1.5402447261
 H         -5.3785089682       -0.5167582164        2.1126548495
 C         -5.5636330332       -0.4553987652       -0.0193616084
 H         -5.7649874897       -1.5290855291        0.0105762811
 H         -6.2155853822        0.0015852826       -0.7635016506
 H         -5.2889383523        3.8767488256       -1.0247543370
 H         -3.9507699868        3.3236399269       -0.0164088963
 H         -5.4724922045        1.5463906525       -1.9722912359
 H         -3.9862421743        2.4283748927       -2.3623995753
 O         -2.3780809801        1.0279738790       -1.3434509501
 C         -1.4061702622        0.1137994029       -0.9630870092
 O         -0.2457462426        0.4410200918       -1.2742869808
 O         -3.5547521512       -2.3433112588        0.6095946748
 C         -0.7561852750       -2.0591630490        0.0996798207
 C          0.2895276376       -1.4116110522        0.9722662553
 C         -0.1212876377       -0.7177749363        2.1088275953
 C          0.7989417715       -0.1051823194        2.9360437419
 C          2.1511641751       -0.1640673826        2.6439120840
 C          2.5727547704       -0.8594772723        1.5183478188
 C          1.6452357121       -1.4880724400        0.6967478163
 H          2.0045435913       -2.0152675151       -0.1703731348
 N          3.9421674099       -0.9626852408        1.2083033823
 S          4.5013600751       -0.4569675539       -0.2871440427
 O          3.8561070233       -1.2045624139       -1.3338336041
 O          5.9397370247       -0.5893036810       -0.2009996108
 C          4.0728241446        1.2729209717       -0.3684837634
 C          2.7723291380        1.6418328670       -0.6481774444
 C          2.4499050621        2.9907696821       -0.6408457109
 C          3.4199425973        3.9391285699       -0.3571659836
 C          4.7217531327        3.5498838347       -0.0784941930
 C          5.0516114105        2.2048538737       -0.0786346107
 H          6.0503133483        1.8555115608        0.1285837833
 H          5.4763557966        4.2883533198        0.1398264845
 H          3.1591931401        4.9858836215       -0.3545088514
 H          1.4339196097        3.2802295782       -0.8585598363
 H          2.0236350848        0.8978376338       -0.8710202576
 H          4.5489006773       -0.5943044572        1.9279517231
 H          2.8728453329        0.3200673764        3.2843838390
 H          0.4630040491        0.4292095321        3.8118102570
 H         -1.1784685105       -0.6654198648        2.3319654076
 H         -1.2878943561       -2.8123418222        0.7004583644
 C         -0.1880583365       -2.7360685876       -1.1297238181
 C          0.3585868526       -4.1282216334       -1.0371089984
 C         -0.9389452141       -3.8776945522       -1.7436579952
 H         -0.9659812489       -3.9578143169       -2.8200855108
 H         -1.8540518674       -4.1859813450       -1.2592571274
 H          1.2275967273       -4.3783676197       -1.6272294510
 H          0.3257728075       -4.6145246705       -0.0737898459
 H          0.3024126632       -2.0423671650       -1.8046485571
