  62
        -98.93906644
 C         -2.4689219527       -1.0191015152        0.3867201729
 C         -2.6923178090        0.1703752668        1.1299691307
 C         -3.9876594798        0.8332067776        0.9357343016
 C         -4.8859777880        0.2815262950        0.1000511265
 C         -6.2257637367        0.8698313185       -0.2328797777
 C         -6.1415917240        1.7827406596       -1.4641029662
 C         -5.0046070921        2.8025745509       -1.3998726209
 H         -4.0487039318        2.2741078984       -1.4278638581
 H         -5.0614955283        3.4108509227       -2.3051322620
 C         -5.0408086957        3.7164751639       -0.1670018493
 H         -4.8532215415        4.7436487286       -0.4866079430
 H         -6.0340071005        3.6932953797        0.2827975414
 C         -3.9950136466        3.3848800643        0.8993863447
 H         -3.9618669834        4.2126633444        1.6129201846
 H         -3.0072507990        3.3136060038        0.4363820979
 C         -4.2432578250        2.1009319935        1.7012217293
 H         -5.2579931500        2.1090502188        2.1046387675
 H         -3.5398663126        2.0912792576        2.5391392027
 H         -7.0944361811        2.3038277360       -1.5727490547
 H         -5.9916393717        1.1587734709       -2.3480414228
 H         -6.9168077020        0.0521616379       -0.4440010085
 H         -6.5922902666        1.4307896857        0.6245851721
 O         -4.6490702482       -0.8677849492       -0.5773151165
 C         -3.4405782488       -1.5416063430       -0.4677011460
 O         -3.3861241509       -2.5695766201       -1.1703158142
 O         -1.8451674288        0.6525946427        1.9304862243
 C         -1.1233869337       -1.6971510192        0.5789838902
 C         -0.1673590784       -1.3800331892       -0.5468498070
 C         -0.3836634088       -1.8414712450       -1.8416074265
 C          0.5274830657       -1.5618264777       -2.8433237964
 C          1.6754432936       -0.8376089219       -2.5736200520
 C          1.8949273343       -0.3625728598       -1.2860233665
 C          0.9701701678       -0.6299119230       -0.2859338570
 H          1.1492303820       -0.2465711047        0.7083580378
 N          3.0368551358        0.3968314876       -0.9856618471
 S          3.7415233730        0.2123074017        0.5379847540
 O          3.7711134774       -1.1862598874        0.9023295147
 O          3.0871697478        1.1009339444        1.4651338385
 C          5.3923522209        0.8000146935        0.2076544149
 C          6.3975027237       -0.1119136838       -0.0535359660
 C          7.6715109670        0.3569580345       -0.3335378374
 C          7.9165576645        1.7217947983       -0.3501137652
 C          6.8974200841        2.6249223420       -0.0857044271
 C          5.6217003527        2.1630540200        0.1963876686
 H          4.8009982941        2.8253183476        0.4182647044
 H          7.0924221174        3.6851394440       -0.0965631102
 H          8.9088562211        2.0842656169       -0.5672974534
 H          8.4665967531       -0.3424317089       -0.5359040335
 H          6.1619127243       -1.1635139448       -0.0206184944
 H          3.7254834456        0.3832143793       -1.7255886083
 H          2.3921591141       -0.6343317196       -3.3548571590
 H          0.3481355774       -1.9243837553       -3.8443495612
 H         -1.2757489993       -2.4100514131       -2.0536750983
 H         -0.7073837048       -1.2504274960        1.4931313224
 C         -1.2183125092       -3.1971440984        0.7842472024
 C         -0.0397970233       -3.9158043804        1.3673562374
 C         -1.2901623753       -3.7452241245        2.1760185438
 H         -1.9098521395       -4.6105915815        2.3571714615
 H         -1.2761326869       -3.0385901003        2.9933556167
 H          0.1998278776       -4.8993377475        0.9932772230
 H          0.8255286350       -3.3243890007        1.6309663181
 H         -1.7905459375       -3.7034936303        0.0181592823
