  62
        -98.93442946
 C         -1.9705188563       -0.2693477729        0.0688557374
 C         -3.0759436850       -0.9197808530        0.6748240760
 C         -4.3165533051       -0.1391548745        0.8072266185
 C         -4.3323779848        1.1416329649        0.4020056590
 C         -5.4650988079        2.1348874439        0.4729957993
 C         -6.8672523974        1.6378638835        0.0945846628
 C         -6.9020859111        0.5570429049       -0.9959819731
 H         -5.9211354662        0.4675263917       -1.4659764939
 H         -7.6076740551        0.8590469409       -1.7722457295
 C         -7.3425826623       -0.8104992616       -0.4678816798
 H         -7.6981085333       -1.4131678579       -1.3071853464
 H         -8.1857616821       -0.6677727593        0.2114890785
 C         -6.2588863648       -1.6198596036        0.2435323678
 H         -5.5201396306       -1.9686876666       -0.4833513149
 H         -6.7290620021       -2.5084909749        0.6714317013
 C         -5.5023694364       -0.8781207663        1.3574619570
 H         -5.0986108776       -1.6266076221        2.0447120090
 H         -6.1651823625       -0.2190503053        1.9128052781
 H         -7.4307642111        2.5105472072       -0.2400167816
 H         -7.3724688179        1.2612931394        0.9829261231
 H         -5.1717016376        2.9481040019       -0.1954016218
 H         -5.4926437614        2.5468241463        1.4860721158
 O         -3.2329088570        1.7453491893       -0.1281970845
 C         -2.0327644213        1.0700676464       -0.3159338957
 O         -1.1403064828        1.7743611090       -0.8225156547
 O         -3.0265173283       -2.1052038046        1.0971353042
 C         -0.6926010399       -1.0755201724       -0.0862295524
 C          0.4812778607       -0.3054478605        0.4596984012
 C          0.6436525604       -0.2059123675        1.8382501961
 C          1.6967209557        0.5087820053        2.3775849404
 C          2.6095846453        1.1414161863        1.5525567758
 C          2.4537343569        1.0512788024        0.1759609503
 C          1.4038664336        0.3203002108       -0.3638899094
 H          1.2827507922        0.2744154815       -1.4348535721
 N          3.3798363032        1.6939726635       -0.6657877909
 S          5.0021137472        1.3852734432       -0.4000573628
 O          5.4632360933        2.1463653406        0.7339117224
 O          5.6578278393        1.6616820377       -1.6586235136
 C          5.0651525424       -0.3584197699       -0.0289930038
 C          5.2866567723       -0.7827373592        1.2650868536
 C          5.2600855572       -2.1412590829        1.5379364101
 C          5.0105871685       -3.0462637799        0.5182801808
 C          4.7938861324       -2.6042742003       -0.7781365907
 C          4.8169090967       -1.2475647679       -1.0561619921
 H          4.6596398919       -0.8671214283       -2.0527565513
 H          4.6031166204       -3.3109504637       -1.5699243345
 H          4.9858440135       -4.1028539352        0.7337222829
 H          5.4297944199       -2.4882562131        2.5444088550
 H          5.4796607264       -0.0468678775        2.0280788289
 H          3.1494274873        1.6283654654       -1.6461420576
 H          3.4313503733        1.7134893622        1.9520431914
 H          1.8070303847        0.5785287439        3.4491210766
 H         -0.0748770506       -0.6911170492        2.4844455946
 H         -0.8514148235       -1.9536988423        0.5605325801
 C         -0.4516556717       -1.6138651757       -1.4888920929
 C         -1.6005146555       -2.0623159209       -2.3404130598
 C         -0.8047737792       -0.8549623201       -2.7315897245
 H         -0.1436750885       -0.9337640050       -3.5828567093
 H         -1.2541347314        0.1193100716       -2.6200507886
 H         -1.4920874699       -2.9647005267       -2.9228591641
 H         -2.5964663232       -1.9108937267       -1.9500674273
 H          0.4468086061       -2.2221025545       -1.5332391454
