  62
        -98.94481122
 C          2.4411118277       -1.1719886986        0.0805822768
 C          3.2029377269       -0.4667335216       -0.8890220312
 C          3.8553940855        0.7683490914       -0.4402226981
 C          3.7103483990        1.1573776042        0.8391452506
 C          4.2643415330        2.4251616604        1.4200637439
 C          3.2512944493        3.5733087786        1.3099569843
 C          2.6469861708        3.7346106676       -0.0852399520
 H          2.0274677938        2.8620583081       -0.3086145844
 H          1.9763420068        4.5961396751       -0.0496154307
 C          3.6771637833        3.9322911055       -1.2063824471
 H          3.3340447901        4.7402627299       -1.8558350303
 H          4.6321385255        4.2417785240       -0.7802570355
 C          3.8917344698        2.7063661721       -2.0960456135
 H          2.9246042728        2.3343136372       -2.4438522601
 H          4.4587837892        3.0205076982       -2.9762579438
 C          4.6531054793        1.5404850380       -1.4528168640
 H          4.9015650916        0.8282567851       -2.2448698048
 H          5.5832486039        1.9057017402       -1.0131998586
 H          2.4357133848        3.3860962554        2.0129633598
 H          3.7472386940        4.5004542758        1.6033786543
 H          4.4901829601        2.2518267325        2.4736096594
 H          5.1831779639        2.6864757945        0.8987508414
 O          2.9930168826        0.4489626914        1.7455983799
 C          2.3236607533       -0.7138157235        1.3926464218
 O          1.6894987621       -1.2218597268        2.3408154233
 O          3.3334774626       -0.8600256112       -2.0785969930
 C          1.7227187626       -2.4236460110       -0.4015531859
 C          0.2813079059       -2.0813349787       -0.6929424752
 C         -0.1843300894       -2.0039776742       -2.0005233272
 C         -1.4872189662       -1.6184799153       -2.2642295837
 C         -2.3471785039       -1.2894306229       -1.2314143639
 C         -1.8873024776       -1.3551803519        0.0769003903
 C         -0.5906604406       -1.7661371339        0.3400566396
 H         -0.2373093095       -1.7925314790        1.3603533059
 N         -2.7451858971       -0.9664079499        1.1331606232
 S         -3.0653180501        0.6899306155        1.1617568674
 O         -1.9730547960        1.4478427007        0.5917956963
 O         -3.4184095568        0.9970892494        2.5308511647
 C         -4.5145527458        0.8458528491        0.1390070845
 C         -4.4524419776        1.5614369499       -1.0404464876
 C         -5.5930832457        1.6645345201       -1.8217257234
 C         -6.7682804674        1.0536105430       -1.4115627829
 C         -6.8143957734        0.3401347336       -0.2228439697
 C         -5.6780281596        0.2335868143        0.5629400658
 H         -5.6692682713       -0.3051763861        1.4956311081
 H         -7.7304234756       -0.1324818181        0.0929393508
 H         -7.6536672868        1.1346253677       -2.0221416151
 H         -5.5589031739        2.2187296686       -2.7459217645
 H         -3.5145851730        2.0144847919       -1.3197186797
 H         -2.3786262159       -1.2342006876        2.0373775187
 H         -3.3598518916       -0.9769624699       -1.4283795518
 H         -1.8338923113       -1.5647788780       -3.2848833403
 H          0.4926988011       -2.2260788186       -2.8126317951
 H          2.2056823953       -2.6815879534       -1.3535380107
 C          1.8523151322       -3.6051007757        0.5373604889
 C          1.6136136740       -4.9840023107        0.0016240265
 C          3.0011376808       -4.5513933396        0.3665473065
 H          3.4588182301       -4.9683385334        1.2510197344
 H          3.7000707341       -4.3494504790       -0.4319542130
 H          1.1156804264       -5.7024114048        0.6343608101
 H          1.3717717795       -5.0770167674       -1.0462163889
 H          1.5334017476       -3.3942376645        1.5495705621
