  62
        -98.94075154
 C         -2.0125956064       -1.3401963636        0.3693758556
 C         -2.4946016707       -0.6358008357       -0.7619094458
 C         -3.6965842776        0.1852033900       -0.5404351690
 C         -4.2512216994        0.2364867651        0.6833913324
 C         -5.4410580245        1.0721696268        1.0548901550
 C         -5.0107011163        2.4548036622        1.5645231183
 C         -4.0013199837        3.1607439830        0.6587363870
 H         -3.7946955782        4.1379113810        1.1009830179
 H         -3.0622875626        2.6019182543        0.6645620487
 C         -4.4694641787        3.3448987978       -0.7916142800
 H         -4.2336790841        4.3630733425       -1.1083375978
 H         -5.5526482852        3.2309045172       -0.8482858318
 C         -3.8072844678        2.4012515533       -1.7975995926
 H         -2.7209155804        2.4427024449       -1.6808516868
 H         -4.0401417136        2.7603185658       -2.8036413787
 C         -4.2444620880        0.9327672067       -1.7232908166
 H         -5.3343634586        0.8713041321       -1.7487115964
 H         -3.8495240511        0.4256783732       -2.6085456975
 H         -5.9015710182        3.0761369042        1.6720849708
 H         -4.5589611821        2.3350750926        2.5520864964
 H         -6.0891094682        1.1786007497        0.1872458915
 H         -5.9893764995        0.5580767493        1.8462063111
 O         -3.7478153059       -0.4356397707        1.7502409647
 C         -2.6097377216       -1.2164085417        1.6261817477
 O         -2.2273050853       -1.7349698993        2.6944824348
 H          0.2203489161        0.1634546305        0.9339333296
 C          0.7130033625       -0.2272678873        0.0510911749
 C          0.3236322437       -1.4666321870       -0.4444782746
 C          0.9655695244       -1.9588817951       -1.5721435393
 C          1.9505335916       -1.2142126925       -2.1985663376
 C          2.3200383897        0.0267531320       -1.7153498528
 C          1.6915586438        0.5238976518       -0.5800190148
 N          2.0654993508        1.7807116238       -0.0741604713
 S          3.6982196278        2.1315737322        0.0276030588
 O          3.8126007039        3.0867878434        1.1076397433
 O          4.1823320572        2.5745687289       -1.2559835266
 C          4.4819668628        0.5903658240        0.4684112324
 C          5.4106087604        0.0210424716       -0.3785828113
 C          5.9818619764       -1.1920926462       -0.0286397634
 C          5.6126982087       -1.8134910714        1.1539866057
 C          4.6804707334       -1.2269854159        1.9965388530
 C          4.1081950596       -0.0132850375        1.6528411813
 H          3.3846392702        0.4708823489        2.2893815603
 H          4.3942761061       -1.7111995980        2.9165099876
 H          6.0535921530       -2.7602011640        1.4233877161
 H          6.7086323158       -1.6494451765       -0.6803683439
 H          5.6660819274        0.5370872489       -1.2896659468
 H          1.5784719903        2.0483753204        0.7678986653
 H          3.0694696299        0.6265843342       -2.2057667539
 H          2.4318873817       -1.6031662845       -3.0827378287
 H          0.6757318481       -2.9128700301       -1.9798643203
 C         -0.7648128276       -2.2045308565        0.2967541613
 H         -0.4383258538       -2.3145873023        1.3443741654
 C         -1.0073797307       -3.6125157418       -0.2261636311
 C         -2.3434288440       -4.2741910837       -0.0711828326
 C         -1.8518641838       -3.8883313959       -1.4323413820
 H         -1.5421732369       -4.6750597695       -2.1048316091
 H         -2.3069796431       -3.0453695909       -1.9270053776
 H         -3.1420537995       -3.6947928190        0.3694513392
 H         -2.3692922784       -5.3210911788        0.1917908119
 H         -0.1405111901       -4.2501018503       -0.0828311119
 O         -1.9613298437       -0.6791243959       -1.8995045942
