  62
        -98.94438668
 C          1.8576045853        1.0554096361       -0.2042854093
 C          2.3800029215       -0.0856733897       -0.8590909099
 C          3.8434599292       -0.2251420501       -0.8266613065
 C          4.5841340805        0.7214616183       -0.2217201198
 C          6.0762609214        0.6746373996       -0.0677444404
 C          6.4763877667       -0.0056548064        1.2490799490
 C          5.7752073487       -1.3422174657        1.4920205443
 H          6.1567591402       -1.7432007194        2.4335339903
 H          4.7057789708       -1.1653923780        1.6276470429
 C          5.9775162927       -2.3772383403        0.3766186936
 H          6.8353485721       -2.0986529006       -0.2365659464
 H          6.2050610740       -3.3432505232        0.8322658522
 C          4.7583320616       -2.5862835055       -0.5237582341
 H          3.8744963718       -2.7746337117        0.0913123062
 H          4.9316908404       -3.4803765588       -1.1287140318
 C          4.4359675815       -1.4375160641       -1.4878181582
 H          3.6765979521       -1.7962707926       -2.1890329218
 H          5.3296237312       -1.1710996451       -2.0559603438
 H          6.2288059298        0.6657883783        2.0744669486
 H          7.5575349803       -0.1553889289        1.2456556137
 H          6.5068310142        0.1390911011       -0.9115234148
 H          6.4545542274        1.6982478011       -0.0672309268
 O          4.0462320314        1.8180757957        0.3708928413
 C          2.6742402821        2.0064452225        0.4068616635
 O          2.3104897614        3.0393684239        1.0045064138
 O          1.6651269453       -0.9449605244       -1.4380676745
 C          0.3566325325        1.2835111070       -0.1677407137
 C         -0.3317522059        0.0833589510        0.4341533040
 C          0.1527922153       -0.4317800440        1.6347862242
 C         -0.4239218505       -1.5453477691        2.2116631749
 C         -1.5084666133       -2.1622314178        1.6121846298
 C         -2.0089735431       -1.6490812809        0.4228124478
 C         -1.4281339442       -0.5262187829       -0.1542788438
 H         -1.8287146125       -0.1616591616       -1.0849699754
 N         -3.1032454572       -2.2576401126       -0.2090643523
 S         -4.2825565351       -1.3200241712       -0.9257573874
 O         -5.4504501097       -2.1741587623       -0.9596001109
 O         -3.8329988846       -0.8207300045       -2.2001715243
 C         -4.5501316138        0.0332267645        0.2062789823
 C         -4.3827641238        1.3319515317       -0.2259628553
 C         -4.5817286377        2.3693909893        0.6712551192
 C         -4.9404918720        2.0901780791        1.9804180414
 C         -5.1103550899        0.7790368446        2.3988798050
 C         -4.9147408137       -0.2611939261        1.5056268016
 H         -5.0497680620       -1.2897699326        1.7977100632
 H         -5.3930844316        0.5659938628        3.4171504966
 H         -5.0907423664        2.8992000758        2.6777444078
 H         -4.4543546174        3.3895877485        0.3454717481
 H         -4.0994968339        1.5049621965       -1.2511679352
 H         -3.4965215142       -3.0448195662        0.2847532367
 H         -1.9544219082       -3.0401070460        2.0542528300
 H         -0.0281544978       -1.9381891940        3.1361406785
 H          1.0022307319        0.0489271051        2.1014706410
 H          0.1952244837        2.1436528307        0.4985484862
 C         -0.1407455361        1.6416310742       -1.5524779675
 C         -1.3187680034        2.5507128873       -1.7231108535
 C          0.0590402084        3.0405636277       -2.0504361896
 H          0.3252933992        3.1865154565       -3.0865977440
 H          0.5278908067        3.7423295990       -1.3758214820
 H         -2.0003268108        2.3575728859       -2.5383709352
 H         -1.7889292375        2.9287737215       -0.8281016081
 H         -0.0090896804        0.8353991810       -2.2656572349
