  62
        -98.93892656
 C         -0.6350124228       -1.5318113644        0.3215502829
 C         -1.1185655892       -0.7245337561       -0.7342122246
 C         -2.2941782886        0.1204130412       -0.4337087416
 C         -2.8041220991        0.1367442083        0.8107921773
 C         -3.9708217233        0.8939948580        1.4117875628
 C         -4.9311160082        1.6803183611        0.5238068425
 C         -5.8398689655        0.8135245631       -0.3489032037
 H         -6.5751567189        0.3265111958        0.2965098436
 H         -6.3824431738        1.4657276296       -1.0365234728
 C         -5.1396244238       -0.2815004150       -1.1499295625
 H         -5.9071882695       -0.8483833241       -1.6838172199
 H         -4.6428063134       -0.9752491092       -0.4689741576
 C         -4.1263191248        0.2094791129       -2.1814665280
 H         -3.8039916980       -0.6553556070       -2.7680521563
 H         -4.6064659360        0.9139997676       -2.8638754486
 C         -2.8663198489        0.8723112765       -1.6015926428
 H         -2.0939156358        0.8665095539       -2.3771577794
 H         -3.0560497112        1.9111557393       -1.3429930461
 H         -4.3860368275        2.3962434298       -0.0845047610
 H         -5.5739873837        2.2593908500        1.1921992809
 H         -4.5415875568        0.1563472778        1.9850656784
 H         -3.5338277758        1.5777156271        2.1467564740
 O         -2.2444179709       -0.5913636881        1.8205022145
 C         -1.1871467952       -1.4508864694        1.6021613402
 O         -0.8306316273       -2.0879351373        2.6131940520
 H          1.5418562125       -0.3128118278       -1.0099031943
 C          2.2213542060       -0.7675370125       -0.3054496480
 C          1.8497294393       -1.9144882145        0.3821251065
 C          2.7566268627       -2.4929513538        1.2632252337
 C          4.0101685320       -1.9400187634        1.4495792422
 C          4.3729900253       -0.7878038578        0.7770676523
 C          3.4701364079       -0.1967344075       -0.1007144356
 N          3.8113729961        0.9843734949       -0.7720382341
 S          2.6560573506        2.1227919564       -1.1555234216
 O          1.9881367611        1.7746977277       -2.3823352822
 O          3.3956894196        3.3695528202       -1.1891032883
 C          1.4924538547        2.1848046428        0.1977880123
 C          0.1789183383        2.4857501691       -0.0954455069
 C         -0.7270928096        2.6304269509        0.9428926047
 C         -0.3102968318        2.4513870393        2.2517840906
 C          1.0118733598        2.1442600413        2.5311369250
 C          1.9273464609        2.0236631600        1.4984488732
 H          2.9623346532        1.8015432314        1.7000919979
 H          1.3328872450        2.0018026049        3.5504725057
 H         -1.0179115468        2.5516711830        3.0598824336
 H         -1.7524173965        2.8815353035        0.7261071338
 H         -0.1110029053        2.5897877568       -1.1288677868
 H          4.6801974423        1.4104901022       -0.4848189364
 H          5.3455752678       -0.3446004025        0.9271201359
 H          4.7064362147       -2.4016260451        2.1326880030
 H          2.4674455187       -3.3766816712        1.8119842375
 C          0.4920756735       -2.5402447522        0.1728594353
 H          0.3396463340       -3.2701381153        0.9804755273
 C          0.4686662606       -3.2852777411       -1.1486694273
 C          1.0785121759       -4.6510646283       -1.2269222739
 C         -0.4098955513       -4.4889474304       -1.2982028441
 H         -0.9062216815       -4.6493029385       -2.2434992931
 H         -0.9968878424       -4.7879746939       -0.4415986727
 H          1.6097822732       -4.9251442925       -2.1253972719
 H          1.4984231123       -5.0670604608       -0.3237618685
 H          0.5743896692       -2.6353174790       -2.0074593313
 O         -0.6195890149       -0.6936336100       -1.8901451907
