  62
        -98.93901848
 C         -0.6471692491       -1.6949351082       -1.0266150120
 C         -1.9066253840       -1.9780513447       -0.4456638127
 C         -2.9678064821       -0.9705468651       -0.6127835484
 C         -2.6813497609        0.1655869395       -1.2710829441
 C         -3.5581219939        1.3739791918       -1.4548507486
 C         -3.3326979681        2.3760462141       -0.3079202220
 C         -4.2495578123        2.1832623683        0.8975891870
 H         -3.9365088360        2.9014420844        1.6591851696
 H         -5.2777553669        2.4230205911        0.6166530471
 C         -4.2106945380        0.7794516385        1.5056859798
 H         -3.1738806597        0.4369550378        1.5466584522
 H         -4.5673030888        0.8479495707        2.5356268330
 C         -5.0770146828       -0.2342886827        0.7437412876
 H         -5.7346194721       -0.7487150998        1.4479684291
 H         -5.7253193875        0.3000307056        0.0493379307
 C         -4.2994347846       -1.3229274393       -0.0068647689
 H         -4.9389133914       -1.7352361806       -0.7954541166
 H         -4.0796950248       -2.1474677933        0.6789472544
 H         -2.2943967168        2.2892553320        0.0260674408
 H         -3.4768949584        3.3898308373       -0.6884265676
 H         -3.2542087858        1.8399888646       -2.3945693487
 H         -4.6038807808        1.0899712708       -1.5279358627
 O         -1.4662697936        0.3923579183       -1.8353592553
 C         -0.4156619697       -0.5070610182       -1.7211427401
 O          0.6259814122       -0.1280150542       -2.2854129024
 O         -2.1340399690       -3.0396004306        0.1991857029
 C          0.4693872701       -2.6858426402       -0.7421177997
 C          1.1014673196       -2.3199175591        0.5781522467
 C          1.3331877044       -3.2633685830        1.5712901151
 C          1.8470035989       -2.8769473732        2.7976493585
 C          2.1078360857       -1.5451941424        3.0675454738
 C          1.8798310330       -0.5950014927        2.0782691097
 C          1.4147597370       -0.9931302961        0.8358630317
 H          1.2538785253       -0.2503863399        0.0716725710
 N          2.1100293812        0.7703311344        2.2968889823
 S          1.1149806125        1.8946079752        1.5480922802
 O          1.2551476710        3.0869900218        2.3616055953
 O         -0.2354479518        1.4032979014        1.3975995512
 C          1.8696402362        2.2043264784       -0.0324435957
 C          1.0751923225        2.6665400173       -1.0610268034
 C          1.6597188078        2.9569407242       -2.2826001593
 C          3.0229343963        2.7813062279       -2.4528199336
 C          3.8085640031        2.3195698891       -1.4082933591
 C          3.2307321904        2.0308324881       -0.1831535613
 H          3.8109482485        1.6621948329        0.6466483771
 H          4.8684631684        2.1773423161       -1.5464791632
 H          3.4737270925        2.9993851588       -3.4082365729
 H          1.0448618699        3.3049837799       -3.0969169210
 H          0.0136549823        2.7700076084       -0.8984235306
 H          2.3336420217        1.0303006392        3.2462311765
 H          2.4739291868       -1.2404398958        4.0360000670
 H          2.0223461572       -3.6181411082        3.5625721837
 H          1.0850178677       -4.2984342036        1.3880909750
 H         -0.0302754453       -3.6590092916       -0.6111495381
 C          1.4769989742       -2.8341076252       -1.8704919573
 C          2.8558149262       -2.2549421792       -1.8204386754
 C          2.6644504674       -3.7352741388       -1.6991943578
 H          2.9571014224       -4.3661857083       -2.5246153598
 H          2.8146437374       -4.1794367564       -0.7267921057
 H          3.2593807447       -1.8512998583       -2.7358452170
 H          3.1424838692       -1.7008003464       -0.9405406021
 H          0.9946377622       -2.8403802838       -2.8422800523
