  62
        -98.94413575
 C         -2.2032675495       -0.7826229188       -0.0312212398
 C         -2.8901219896       -0.0703494681        0.9798116297
 C         -3.6809652597        1.0830998415        0.5302957388
 C         -3.6784759697        1.4128253205       -0.7746263215
 C         -4.4800738798        2.5289194300       -1.3780139623
 C         -5.8558488297        2.0340667295       -1.8461881220
 C         -6.6093267497        1.2182588102       -0.7956887814
 H         -7.5770894796        0.9499760298       -1.2247467412
 H         -6.0694049396        0.2863428004       -0.6130955307
 C         -6.8259428598        1.9465936412        0.5381288881
 H         -6.6869763399        3.0196936211        0.4018023573
 H         -7.8583189298        1.7916804813        0.8584895881
 C         -5.9290177997        1.4609029421        1.6782614684
 H         -5.9949651796        0.3728664422        1.7584868393
 H         -6.3090402998        1.8811939828        2.6133052581
 C         -4.4482537698        1.8471388422        1.5727210882
 H         -4.3597415499        2.9228066620        1.4059297874
 H         -3.9735570198        1.6083474629        2.5292899384
 H         -6.4538325798        2.9004397492       -2.1345154626
 H         -5.7157779396        1.4077947688       -2.7301850815
 H         -4.5987188999        3.3232360305       -0.6435343729
 H         -3.9324834898        2.9193326394       -2.2374450926
 O         -2.9710704996        0.7303809298       -1.7104700109
 C         -2.2210295095       -0.3858479098       -1.3687770001
 O         -1.6280287094       -0.9185350205       -2.3243835897
 O         -2.8383222196       -0.3803855172        2.2019697299
 C         -1.3834048794       -2.0005141985        0.3526779011
 C          0.0708543506       -1.7854353186        0.0100561910
 C          0.8543348707       -2.7356855090       -0.6307041783
 C          2.1863941207       -2.4763189491       -0.9048212684
 C          2.7657737006       -1.2738746888       -0.5457764593
 C          1.9959604905       -0.3215307683        0.1099984800
 C          0.6637436905       -0.5859795483        0.3864921301
 H          0.0654425004        0.1572012821        0.9005228196
 N          2.5735247303        0.9081636820        0.4734023391
 S          4.0120384303        0.8822212828        1.3407949091
 O          4.1252719304       -0.3155668866        2.1404808600
 O          4.0431197702        2.1388140533        2.0570893982
 C          5.2725425404        0.9000464520        0.0837431891
 C          5.2644143803        1.9349991813       -0.8307308016
 C          6.2426449803        1.9685219006       -1.8115518516
 C          7.2083922904        0.9740517507       -1.8592209609
 C          7.2050966305       -0.0561146386       -0.9313625201
 C          6.2287160904       -0.0960540880        0.0519669999
 H          6.1831074805       -0.8797881274        0.7912266005
 H          7.9571216505       -0.8277048086       -0.9698421295
 H          7.9682663304        1.0027936202       -2.6240903309
 H          6.2483390202        2.7680700001       -2.5347869222
 H          4.4987350202        2.6892576713       -0.7569539222
 H          1.9203718303        1.5529187922        0.8944671886
 H          3.8003321906       -1.0663774188       -0.7647171994
 H          2.7809726208       -3.2215795294       -1.4106250278
 H          0.4216504308       -3.6787716393       -0.9209227376
 H         -1.4639172494       -2.0736591977        1.4481490512
 C         -1.9755755993       -3.2510304890       -0.2627934079
 C         -1.8212235491       -4.5764730485        0.4193724431
 C         -3.1549937192       -3.8940583886        0.4011174425
 H         -3.9376742992       -4.3028402591       -0.2201770572
 H         -3.5141316793       -3.4456673679        1.3162474022
 H         -1.6905392290       -5.4580343889       -0.1898536663
 H         -1.2765872492       -4.5988099177        1.3512588531
 H         -1.9640722192       -3.2256132298       -1.3465945480
