  62
        -98.93921765
 C         -2.4378022979       -0.8191552233        0.2465090960
 C         -2.7913359205        0.5120517248        0.5862319637
 C         -3.9007232681        1.1086439615       -0.1668588652
 C         -4.4890502301        0.3917485029       -1.1416005761
 C         -5.6655796650        0.8489694017       -1.9532795540
 C         -6.9888254188        0.4254985644       -1.3002709427
 C         -7.0805621484        0.7655539732        0.1872833629
 H         -8.0667424154        0.4484792953        0.5332086390
 H         -6.3425229572        0.1745296626        0.7344187442
 C         -6.8785092672        2.2521369423        0.5124093361
 H         -7.0177973848        2.8509758672       -0.3883283685
 H         -7.6427407692        2.5612374404        1.2286303769
 C         -5.5224495513        2.5861405114        1.1370590700
 H         -5.3370580418        1.9241633272        1.9868049725
 H         -5.5678114675        3.6081293619        1.5228897857
 C         -4.3153514093        2.5074305973        0.1935987240
 H         -4.5122501892        3.0946245413       -0.7058734746
 H         -3.4586231093        2.9500494540        0.7105373599
 H         -7.8079309945        0.9078371472       -1.8366228188
 H         -7.0991372719       -0.6556031038       -1.4115523738
 H         -5.6291547418        1.9316912586       -2.0572791523
 H         -5.5974809131        0.3952513403       -2.9433970751
 O         -4.1001985195       -0.8648185487       -1.4674013222
 C         -3.0703762239       -1.5087977804       -0.7890202134
 O         -2.8403613829       -2.6564969678       -1.2085027617
 H          0.8206550734       -0.1819359985        2.1070416783
 C          1.0097790117       -0.5028298400        1.0915329406
 C          0.0147090237       -1.1693542894        0.3931376730
 C          0.2582692833       -1.5406518205       -0.9260704746
 C          1.4790176228       -1.2662459771       -1.5144108529
 C          2.4753183826       -0.6125864687       -0.8090812726
 C          2.2331384852       -0.2141637572        0.4980670860
 N          3.2331156741        0.4500908905        1.2234672163
 S          4.1439659930        1.6457275086        0.4786310654
 O          4.6239589257        2.4748766504        1.5622463596
 O          3.4006006700        2.3142662782       -0.5635768073
 C          5.5193036503        0.7545257161       -0.2191922969
 C          5.8438980214        0.9216882517       -1.5510701585
 C          6.9273946512        0.2291957435       -2.0692143405
 C          7.6638646426       -0.6127373885       -1.2502492395
 C          7.3264570260       -0.7677301001        0.0861242357
 C          6.2454809473       -0.0774817603        0.6104356585
 H          5.9537868901       -0.1678538325        1.6433677384
 H          7.9015446978       -1.4235512189        0.7197769888
 H          8.5059323899       -1.1509508455       -1.6559112882
 H          7.1914673544        0.3492258985       -3.1076591637
 H          5.2401438098        1.5833997107       -2.1519607892
 H          2.9496361616        0.7332356372        2.1502580869
 H          3.4245203170       -0.3922978145       -1.2690951339
 H          1.6582859313       -1.5641490900       -2.5364562875
 H         -0.5208594940       -2.0414408125       -1.4810568343
 C         -1.3126165088       -1.4447425234        1.0520976615
 H         -1.3218785951       -0.8964821315        2.0078964254
 C         -1.5380377909       -2.9149985954        1.3752809804
 C         -0.6929040856       -4.0281515985        0.8406721417
 C         -0.5777052361       -3.6306072137        2.2795001542
 H         -0.9713482320       -4.2908534201        3.0372699469
 H          0.3112434811       -3.0944933409        2.5770630228
 H         -1.1902212554       -4.9533637475        0.5929895715
 H          0.1213385749       -3.7823082558        0.1781363124
 H         -2.5909075007       -3.1401032953        1.5109695536
 O         -2.2065740547        1.1669689969        1.4923546620
