  62
        -98.93910239
 C          1.9365139744        1.3438956588        0.0923628638
 C          2.3135395540        0.5077268173        1.1689363202
 C          2.9460533158       -0.7749540323        0.8181826498
 C          3.1162307718       -1.0830557534       -0.4793509958
 C          3.7138827271       -2.3382040919       -1.0524175014
 C          2.6154152545       -3.3615923026       -1.3838304049
 C          2.2227337855       -4.2770403850       -0.2256521092
 H          1.3606047887       -4.8629256167       -0.5504071961
 H          3.0376467808       -4.9768590579       -0.0290729529
 C          1.8695524035       -3.5586033935        1.0793201009
 H          1.2553939548       -2.6824875339        0.8618491115
 H          1.2635350493       -4.2362039796        1.6836804060
 C          3.1066110744       -3.1466883130        1.8924707895
 H          3.9844432661       -3.6460594511        1.4828120521
 H          2.9999573725       -3.5040348789        2.9189249760
 C          3.3686144304       -1.6354093311        1.9776858407
 H          2.8340488682       -1.2216892928        2.8387436843
 H          4.4345859477       -1.4687616474        2.1665388510
 H          1.7401514046       -2.8058413489       -1.7281416581
 H          2.9573889119       -3.9875006023       -2.2104194042
 H          4.2110866518       -2.0481909796       -1.9804112939
 H          4.4534459153       -2.7562438660       -0.3759633575
 O          2.6980696321       -0.2687545206       -1.4857513592
 C          2.0871712072        0.9482183027       -1.2370081678
 O          1.7391324601        1.5628735327       -2.2614780956
 H         -0.5160018755        1.2105016401        1.6463599068
 C         -0.9697239434        1.7465857039        0.8223255433
 C         -0.1771296113        2.5960160182        0.0578967315
 C         -0.7623935610        3.2779289844       -0.9994917699
 C         -2.1081870353        3.1074787614       -1.2795368302
 C         -2.8960751859        2.2697357244       -0.5117697688
 C         -2.3186743473        1.5811475137        0.5492799285
 N         -3.1074868495        0.7449655166        1.3626548115
 S         -4.0440239123       -0.4576106862        0.6795025966
 O         -5.0266410324        0.1415077813       -0.1868347788
 O         -4.5517581483       -1.2192413256        1.7968186598
 C         -2.9271202111       -1.4672544695       -0.2767567123
 C         -2.4438252198       -2.6336604284        0.2823008528
 C         -1.5727975605       -3.4201753971       -0.4533946353
 C         -1.1929848410       -3.0224664619       -1.7260838537
 C         -1.6733112610       -1.8397971018       -2.2670949276
 C         -2.5513434557       -1.0524637483       -1.5390358880
 H         -2.9524412434       -0.1341981152       -1.9356259246
 H         -1.3669697207       -1.5259595375       -3.2523819570
 H         -0.5227193938       -3.6399060161       -2.3034924661
 H         -1.1952518829       -4.3385046693       -0.0336324954
 H         -2.7725219092       -2.9098801839        1.2712798895
 H         -2.6069920391        0.3757374650        2.1584437167
 H         -3.9448071591        2.1324789593       -0.7203208775
 H         -2.5518525292        3.6405054381       -2.1069479705
 H         -0.1643996269        3.9322157084       -1.6114952452
 C          1.2880845152        2.6822480226        0.4071776036
 H          1.3662549070        2.7920578742        1.4981589566
 C          2.0165918045        3.8335733533       -0.2496946346
 C          1.8156692079        5.2246280156        0.2701493647
 C          3.1182912167        4.5201082823        0.4984023263
 H          3.9872798488        4.8487897566       -0.0516312221
 H          3.3416541245        4.1673682394        1.4948384480
 H          1.7901216272        6.0409659982       -0.4353533503
 H          1.1528754796        5.3508723915        1.1129201018
 H          2.1498833794        3.7016746876       -1.3164085084
 O          2.1250702228        0.8181728010        2.3778202344
