  62
        -98.94558049
 C         -1.9661620636        1.5150113106        0.0982155957
 C         -1.6845036366        0.2658053535        0.7032371288
 C         -2.8104027695       -0.6782672684        0.7636706022
 C         -4.0145321588       -0.3010619257        0.2966239449
 C         -5.2314113430       -1.1786466828        0.2550144413
 C         -5.3294616425       -1.9257066225       -1.0824320549
 C         -4.0329332866       -2.6226390819       -1.4951704761
 H         -3.2703863113       -1.8670060086       -1.6978002093
 H         -4.2284936855       -3.1415866436       -2.4361441896
 C         -3.4938010989       -3.6213815847       -0.4618623819
 H         -3.1911534834       -4.5325379133       -0.9822890234
 H         -4.2864563910       -3.8957998077        0.2352121113
 C         -2.2751337954       -3.1302779025        0.3221074437
 H         -1.5144003116       -2.7645773336       -0.3719073061
 H         -1.8536597806       -3.9867949452        0.8544178158
 C         -2.5428097982       -2.0319426591        1.3586452945
 H         -1.6377206513       -1.9152926874        1.9615469278
 H         -3.3607616026       -2.3346727956        2.0154996702
 H         -5.5959068778       -1.2076144396       -1.8615817354
 H         -6.1332717132       -2.6606933709       -1.0098676030
 H         -6.1146303534       -0.5488417136        0.3748233205
 H         -5.1900458890       -1.8891221163        1.0781698354
 O         -4.2526467836        0.9220750921       -0.2437622836
 C         -3.2327855594        1.8499954388       -0.3782320794
 O         -3.5737002203        2.9171536023       -0.9282308920
 O         -0.5579530318       -0.0447204311        1.1678064721
 C         -0.8581095738        2.5429064142       -0.0501512927
 C          0.3051193981        1.9096692836       -0.7725895564
 C          0.0767684904        1.3169074738       -2.0119805444
 C          1.0975424041        0.6832957008       -2.6934933327
 C          2.3706625430        0.6233442702       -2.1532568644
 C          2.6094329994        1.2145566753       -0.9210363439
 C          1.5838698103        1.8617432579       -0.2430646407
 H          1.7891775001        2.3133076864        0.7146778979
 N          3.8991268936        1.1512228368       -0.3590891691
 S          4.6038851812       -0.3621764844       -0.2155420776
 O          5.6541272051       -0.1935363427        0.7639662028
 O          5.0219706625       -0.8173745106       -1.5179052825
 C          3.3226896253       -1.4220185859        0.4257025087
 C          2.6444297564       -2.2724178255       -0.4225037845
 C          1.6255993659       -3.0565257044        0.0932431489
 C          1.3025626163       -2.9734585979        1.4377917118
 C          1.9907995979       -2.1113478238        2.2758255685
 C          3.0089710415       -1.3241695890        1.7663192292
 H          3.5730157217       -0.6483648954        2.3893768267
 H          1.7311368572       -2.0450772430        3.3201607896
 H          0.5074603239       -3.5837236192        1.8358441885
 H          1.0842613629       -3.7269469764       -0.5553480067
 H          2.9285568136       -2.3110611187       -1.4614583298
 H          3.9764164362        1.6480692420        0.5170980619
 H          3.1778943888        0.1239913647       -2.6639679749
 H          0.9020534993        0.2275181033       -3.6525870490
 H         -0.9209438201        1.3528886776       -2.4292529987
 H         -1.2645714290        3.3450541209       -0.6824669771
 C         -0.5024439544        3.1227131538        1.3028308708
 C          0.1079562176        4.4879573216        1.4005700767
 C         -1.3096474669        4.2672711118        1.8338743896
 H         -1.5373393006        4.2923524604        2.8890346695
 H         -2.1047584612        4.6454590392        1.2078782224
 H          0.8519982255        4.6698332835        2.1616751170
 H          0.2788495600        5.0262310190        0.4805071234
 H         -0.1861840549        2.3658503530        2.0118094532
