  62
        -98.93685637
 C          2.4948886303        1.4435285804        0.1347138295
 C          2.5632832102        0.3468376403       -0.7570213604
 C          3.7373198603       -0.5306243696       -0.6118772805
 C          4.6545451805       -0.2530281495        0.3323341194
 C          5.8648653706       -1.0850635093        0.6483446693
 C          5.4559311408       -2.3225745693        1.4723060295
 C          5.6704866507       -3.6552132093        0.7546281596
 H          6.7357657407       -3.8951718793        0.7619835794
 H          5.1548499109       -4.4249218593        1.3327541997
 C          5.1870441205       -3.7153077695       -0.6975370403
 H          5.9207592504       -3.2385028396       -1.3491688505
 H          5.1587686005       -4.7697851596       -0.9801819102
 C          3.8106752004       -3.0954773297       -0.9728159902
 H          3.2035863206       -3.0833275496       -0.0670492601
 H          3.2894761404       -3.7303875698       -1.6925756700
 C          3.8540402602       -1.6789472897       -1.5759374404
 H          4.7636211301       -1.5640999097       -2.1723665005
 H          3.0013294401       -1.5632316398       -2.2518689802
 H          6.0213354409       -2.3419646791        2.4051391994
 H          4.4033472708       -2.2203583593        1.7449381796
 H          6.3558315204       -1.3848138194       -0.2747792908
 H          6.5485809706       -0.4574321292        1.2202137391
 O          4.5448104005        0.8028439906        1.1797179293
 C          3.4683679105        1.6693197006        1.1093944493
 O          3.4916879205        2.5880634507        1.9522638192
 H         -0.7431418999        1.5869591000       -1.5301227000
 C         -0.8874026198        1.3326348401       -0.4923314600
 C          0.0648283003        1.6930452603        0.4457667098
 C         -0.1342950194        1.3248386504        1.7742716299
 C         -1.2634574993        0.6233656804        2.1495185502
 C         -2.2163295794        0.2681471202        1.2092698604
 C         -2.0168402097        0.6121107301       -0.1199810597
 N         -2.9738234398        0.2672401699       -1.0852171395
 S         -3.7625762497       -1.2076220501       -1.0085710792
 O         -2.9423471495       -2.2360371000       -0.4119886993
 O         -4.2219204399       -1.4535977203       -2.3582055891
 C         -5.1731157696       -0.8696347601        0.0265854809
 C         -5.9632470797        0.2199121198       -0.2839243391
 C         -7.0706986096        0.4901118098        0.5036932011
 C         -7.3705029894       -0.3306203101        1.5808004512
 C         -6.5700635892       -1.4229195400        1.8773411812
 C         -5.4600681893       -1.6980082800        1.0936014111
 H         -4.8068945493       -2.5335560499        1.2902746911
 H         -6.8047200491       -2.0605050999        2.7145877613
 H         -8.2328765593       -0.1177818300        2.1926579413
 H         -7.6954773997        1.3387645298        0.2760616111
 H         -5.6983125398        0.8319366497       -1.1297505592
 H         -2.7009204000        0.4908513898       -2.0309824796
 H         -3.0939490794       -0.2880864298        1.4946943806
 H         -1.4064939191        0.3486316205        3.1836957002
 H          0.6167202607        1.5920560605        2.5054647998
 C          1.3336115402        2.4232634903        0.0793084596
 H          1.5328842403        3.1676288004        0.8620913595
 C          1.2769132200        3.1293587802       -1.2590002905
 C          0.4773092699        4.3892573301       -1.3947536005
 C          1.9745783799        4.4451034902       -1.4190269607
 H          2.4690621397        4.6544666901       -2.3557957008
 H          2.4874927400        4.8454451303       -0.5567122309
 H         -0.0575811603        4.5653584200       -2.3155953305
 H         -0.0292908300        4.7532130902       -0.5138478105
 H          1.3063015799        2.4495537601       -2.1020176204
 O          1.6982011701        0.1109502101       -1.6421861702
