  62
        -98.93895304
 C          2.1877318317        1.0478763872        0.4683654162
 C          2.2921973815        0.2003470565       -0.6588679937
 C          3.0907929692       -1.0268767808       -0.4808088016
 C          3.6327144713       -1.2871623058        0.7215991606
 C          4.5203671683       -2.4413206626        1.0976034442
 C          6.0024407514       -2.0579201259        0.9457050537
 C          6.5873564019       -2.2840181815       -0.4477682973
 H          7.5924796860       -1.8563143413       -0.4511110269
 H          6.6870411070       -3.3568960351       -0.6248754394
 C          5.7885763944       -1.6708348715       -1.6007888027
 H          6.4593164713       -1.5705009915       -2.4561805621
 H          5.4596463708       -0.6664454281       -1.3281547512
 C          4.5785000370       -2.5206631666       -2.0168302095
 H          4.6577340792       -3.5049945166       -1.5556977681
 H          4.6031707362       -2.6824525697       -3.0964507275
 C          3.2072856278       -1.9086770665       -1.6940530904
 H          2.8853094911       -1.2754478410       -2.5270125518
 H          2.4654258950       -2.7110771140       -1.6129280282
 H          6.5893872947       -2.6421023428        1.6572478690
 H          6.1058085686       -1.0056507054        1.2225974025
 H          4.2780978758       -3.3216561589        0.5096780364
 H          4.3223483681       -2.6561429494        2.1499178772
 O          3.4728282671       -0.4608901611        1.7929074423
 C          2.7537949423        0.7166622693        1.6979490029
 O          2.6823685832        1.3661152463        2.7616781772
 O          1.7532990150        0.4565384972       -1.7672694425
 C          1.3974492592        2.3410692549        0.3747320088
 C         -0.0328332249        2.0382420360       -0.0027874739
 C         -0.7175192820        2.6963760363       -1.0151987605
 C         -2.0237928270        2.3501128260       -1.3163458362
 C         -2.6763595255        1.3540131728       -0.6140393305
 C         -2.0029209769        0.6938059516        0.4057255438
 C         -0.6958817580        1.0432730803        0.7054905309
 H         -0.1700961561        0.5245448113        1.4990018413
 N         -2.6615542204       -0.3104787938        1.1389192108
 S         -3.4016754126       -1.5529863037        0.2826742796
 O         -3.4289548353       -2.6739610304        1.1978300063
 O         -2.7616496318       -1.7784924666       -0.9923875578
 C         -5.0647301561       -0.9644758492        0.0404989967
 C         -5.8045222297       -0.6279274932        1.1572770993
 C         -7.1022669861       -0.1728536121        0.9876420099
 C         -7.6360251684       -0.0652525159       -0.2880998408
 C         -6.8814566161       -0.4103505813       -1.3988814252
 C         -5.5821104879       -0.8656657797       -1.2361770735
 H         -4.9555808544       -1.1409212060       -2.0697843215
 H         -7.2981609999       -0.3268189374       -2.3897365654
 H         -8.6463218030        0.2894664517       -0.4174004020
 H         -7.6921446517        0.0961028678        1.8490112446
 H         -5.3534082096       -0.7307323437        2.1300596407
 H         -2.1021014790       -0.6908291695        1.8889679758
 H         -3.6910707584        1.0780955271       -0.8499445870
 H         -2.5410609194        2.8640394649       -2.1120837924
 H         -0.2252448407        3.4722971567       -1.5777400050
 H          1.3979039593        2.7701951728        1.3876166912
 C          2.0843083119        3.3090490437       -0.5654924625
 C          1.9277223866        4.7867220801       -0.3732536946
 C          3.2318793119        4.1231075416       -0.0507549148
 H          4.0756319273        4.2947433815       -0.7021503725
 H          3.5018162727        3.9971425361        0.9879834020
 H          1.8790178498        5.4183830966       -1.2472725760
 H          1.3137109723        5.1212772966        0.4490649534
 H          2.1566843716        2.9257143160       -1.5767264660
