  62
        -98.94119161
 C         -2.7770369114       -0.5049492445       -0.2924842397
 C         -2.1057350316        0.4262866363       -1.1215786947
 C         -2.3345566883        1.8432260585       -0.8111253811
 C         -3.1496308552        2.1920136565        0.1993499626
 C         -3.4765832178        3.5945914844        0.6337147610
 C         -2.4356247879        4.2090126958        1.5799914670
 C         -1.1082779016        4.5975936799        0.9270882242
 H         -1.3027976861        5.2159954199        0.0502002920
 H         -0.5662245741        5.2131089822        1.6476695641
 C         -0.2214286535        3.4076329365        0.5341926175
 H          0.8063086514        3.5933971578        0.8558703838
 H         -0.5484685638        2.5092170421        1.0642174004
 C         -0.1833313962        3.1107274209       -0.9649252483
 H          0.2954033451        3.9392048145       -1.4921243109
 H          0.4248504212        2.2141727812       -1.1130760831
 C         -1.5593887334        2.8594090560       -1.5948410547
 H         -2.1167454308        3.7926463663       -1.6664688302
 H         -1.4086569361        2.4607462979       -2.6009883165
 H         -2.2458333871        3.5060616140        2.3948167615
 H         -2.8798646089        5.1082746063        2.0130397148
 H         -3.5963936329        4.2327032626       -0.2421552125
 H         -4.4318325353        3.5423657848        1.1604077582
 O         -3.8022746642        1.2704218062        0.9556473662
 C         -3.6101286847       -0.0841485332        0.7500913354
 O         -4.2407485812       -0.8120765023        1.5432271382
 H         -0.0839210237       -1.3636443939       -1.1387047925
 C         -0.0952759045       -1.9657106802       -0.2421278955
 C         -1.3095890112       -2.4111339723        0.2603658638
 C         -1.3064971858       -3.1645244075        1.4280495290
 C         -0.1182926350       -3.4522813269        2.0782545331
 C          1.0879192570       -2.9865521847        1.5855727968
 C          1.0922594804       -2.2328002821        0.4196669134
 N          2.3130624009       -1.7108379361       -0.0752974885
 S          2.9944347476       -0.5716932764        0.9798774705
 O          3.6355047458       -1.2890669552        2.0537926625
 O          1.9995848928        0.4006495422        1.3764605178
 C          4.2224007332        0.1832948683       -0.0671388197
 C          5.4414538778       -0.4462620340       -0.2303823245
 C          6.3800171344        0.1240659736       -1.0754376827
 C          6.0846028093        1.3052784665       -1.7398888663
 C          4.8565555924        1.9254540463       -1.5651291783
 C          3.9128792024        1.3595843678       -0.7223597534
 H          2.9471838092        1.8096703946       -0.5513918435
 H          4.6289252636        2.8444286979       -2.0809252348
 H          6.8165382534        1.7476489150       -2.3970371202
 H          7.3367634880       -0.3531461407       -1.2132516892
 H          5.6277869403       -1.3579562767        0.3123881888
 H          2.1584879661       -1.2579562951       -0.9687536708
 H          2.0166842082       -3.1712655651        2.1008212728
 H         -0.1327518558       -4.0348773096        2.9872245123
 H         -2.2467127035       -3.5014009289        1.8407880565
 C         -2.6022395186       -2.0132742730       -0.4123409836
 H         -3.4288382265       -2.4562608993        0.1587603604
 C         -2.6761159965       -2.5214272435       -1.8382565766
 C         -2.9754160028       -3.9701447495       -2.0743383333
 C         -4.0022965474       -2.9290575815       -2.4024449516
 H         -4.2079696985       -2.7130065770       -3.4399920168
 H         -4.8664685055       -2.8437039024       -1.7595335022
 H         -2.4745444329       -4.4731632733       -2.8870659781
 H         -3.1440995678       -4.5927579445       -1.2086546198
 H         -1.9818331115       -2.0334732951       -2.5086876223
 O         -1.3447065837        0.1224305304       -2.0800656173
