  62
        -98.94903819
 C          0.8935082998        1.3592890702        0.2377615703
 C          1.4498874603        0.2870393204        0.9718351002
 C          2.2748982302       -0.6563612595        0.2058552499
 C          2.3965595897       -0.4913031195       -1.1241777401
 C          3.2103902795       -1.3754124894       -2.0243158704
 C          4.6419004393       -0.8461095291       -2.1863415810
 C          5.3246088998       -0.5073371788       -0.8612160713
 H          6.3388733696       -0.1756886586       -1.0933065418
 H          4.8066006198        0.3374597811       -0.4016131712
 C          5.3818510805       -1.6714835287        0.1376128588
 H          5.2144732105       -2.6147191688       -0.3835530611
 H          6.3841007206       -1.7128163284        0.5690539384
 C          4.3992695709       -1.5541514089        1.3040932391
 H          4.4966152708       -0.5682180688        1.7650664290
 H          4.6769779714       -2.2968481887        2.0566458591
 C          2.9207148108       -1.7827246592        0.9637676097
 H          2.8085295708       -2.7268971193        0.4256356499
 H          2.3736093912       -1.8513194493        1.9084771100
 H          5.2283451393       -1.5958661690       -2.7207171512
 H          4.6086891489        0.0585855909       -2.7978184111
 H          3.2285913499       -2.3836362494       -1.6139978103
 H          2.7247223391       -1.4027987296       -3.0017606302
 O          1.8221722991        0.5344871303       -1.8014521300
 C          1.0567769292        1.4835366201       -1.1426433398
 O          0.5964413787        2.3766347700       -1.8797021597
 H         -1.3736427399        0.1815239896        0.3509229413
 C         -1.9275706802        1.0700836195        0.0847900615
 C         -1.3747647904        2.3180822196        0.3445831911
 C         -2.1085237808        3.4499035694        0.0158312313
 C         -3.3444423211        3.3266921191       -0.5959617882
 C         -3.8622525309        2.0834035489       -0.9077934378
 C         -3.1419098805        0.9437424791       -0.5666171280
 N         -3.6303257103       -0.3386367210       -0.8553931477
 S         -2.5673193401       -1.5805460408       -1.2138162981
 O         -1.3842721205       -1.1184504905       -1.9018281686
 O         -3.3812852602       -2.5417970310       -1.9308207377
 C         -2.1497534893       -2.2708484805        0.3723430718
 C         -3.1699909189       -2.5184675807        1.2697643722
 C         -2.8605510182       -3.0917616805        2.4922045622
 C         -1.5453164580       -3.4140448902        2.7911181617
 C         -0.5340834385       -3.1653006800        1.8767661512
 C         -0.8361074491       -2.5858504902        0.6546425713
 H         -0.0752866595       -2.3572657801       -0.0767961690
 H          0.4887755217       -3.4127847298        2.1100374708
 H         -1.3038306176       -3.8610283301        3.7425433416
 H         -3.6435302979       -3.2854852907        3.2074686325
 H         -4.1793193090       -2.2584660210        0.9981989426
 H         -4.4559721105       -0.3644397013       -1.4357597774
 H         -4.8100411411        1.9911128087       -1.4158413775
 H         -3.9028893714        4.2137920689       -0.8539124980
 H         -1.7073869310        4.4284878296        0.2225404911
 C          0.0040928198        2.3587275800        0.9559033506
 H         -0.0635803497        1.9995067801        1.9938286506
 C          0.6287857695        3.7377149402        0.9540583802
 C          0.3436753497        4.6987989102        2.0684679703
 C          1.6912654698        4.0526399805        1.9627534798
 H          2.5324094795        4.6552418607        1.6544456094
 H          1.9455630903        3.2777942506        2.6711517097
 H         -0.3151894399        4.3682773701        2.8569224606
 H          0.2615320993        5.7494712802        1.8343572202
 H          0.7556876990        4.1335485101       -0.0475529299
 O          1.2587941509        0.1209406804        2.2072757803
