  62
        -98.93863787
 C          1.7057766509        0.0863195599        0.2783111799
 C          2.8553955809        0.9039657600        0.1446970606
 C          4.0364573910        0.2553451403       -0.4504918397
 C          3.9601622510       -1.0234450894       -0.8578995905
 C          5.0976584110       -1.8097701291       -1.4413168709
 C          5.8757994008       -2.5574937498       -0.3494466913
 C          6.2610276207       -1.6827860106        0.8436464994
 H          5.3526122207       -1.3721678209        1.3648491494
 H          6.8300876606       -2.3084594611        1.5347439790
 C          7.0863165708       -0.4404916004        0.4803178003
 H          7.9121369007       -0.3496746509        1.1890984304
 H          7.5229382309       -0.5632651998       -0.5114734397
 C          6.3083091108        0.8756977096        0.5318878410
 H          5.7929447007        0.9590383690        1.4919706510
 H          7.0270636609        1.6973736696        0.4742395117
 C          5.2805092610        1.0880533303       -0.5866793690
 H          5.7523249911        0.9207499310       -1.5570055390
 H          4.9496364310        2.1296813303       -0.5397880283
 H          5.2560024908       -3.3801465500        0.0148572281
 H          6.7758464209       -2.9828998496       -0.7971023214
 H          4.6871861411       -2.5359846686       -2.1451363914
 H          5.7616007511       -1.1345609988       -1.9777667503
 O          2.8323432809       -1.7705284595       -0.7362196612
 C          1.6927943109       -1.2431622998       -0.1537186010
 O          0.7443146308       -2.0499027398       -0.0670312716
 O          2.9152749409        2.1094774997        0.4957187314
 C          0.4037145908        0.5787503996        0.8893128700
 C         -0.4505205390        1.2614781403       -0.1482539796
 C          0.0364638611        2.3179247708       -0.9124567489
 C         -0.7700605288        2.9255722514       -1.8568846586
 C         -2.0666400387        2.4885234616       -2.0658749490
 C         -2.5614373289        1.4306367011       -1.3127208198
 C         -1.7534114290        0.8328157405       -0.3550604701
 H         -2.1366300391        0.0042294701        0.2189368393
 N         -3.8794346389        0.9832905413       -1.4806796503
 S         -4.2369392389       -0.6529662788       -1.4100917114
 O         -3.1631472689       -1.4565656985       -1.9437316218
 O         -5.5137890189       -0.7631292583       -2.0836920616
 C         -4.4745958592       -0.9699129599        0.3251201484
 C         -3.7009941693       -1.9168499603        0.9668007479
 C         -3.9046862695       -2.1408298512        2.3198401577
 C         -4.8730688896       -1.4198722416        3.0017121580
 C         -5.6446818794       -0.4757363811        2.3407679685
 C         -5.4465077393       -0.2469019603        0.9887968587
 H         -6.0270654592        0.4734449801        0.4372523491
 H         -6.3961844595        0.0825081885        2.8753139288
 H         -5.0248189197       -1.5956424823        4.0549887679
 H         -3.3015303596       -2.8729294616        2.8330051073
 H         -2.9468068793       -2.4469654200        0.4042964476
 H         -4.3929489188        1.4450954718       -2.2172662500
 H         -2.6912976186        2.9601792121       -2.8094009288
 H         -0.3827694886        3.7456889118       -2.4428370880
 H          1.0488386911        2.6569306306       -0.7549399285
 H         -0.1269518993       -0.3364573806        1.1967513794
 C          0.6119640207        1.4184215087        2.1435186606
 C          0.2797047607        2.8741026387        2.2391382615
 C         -0.5793243894        1.8666280783        2.9381774107
 H         -0.5385702696        1.8031351176        4.0148855107
 H         -1.5540776194        1.6658108186        2.5184800405
 H          0.9376372106        3.4960360183        2.8266831620
 H         -0.1196027092        3.3672985993        1.3675323118
 H          1.4766574406        1.0873129683        2.7096339705
