  62
        -98.94107722
 C         -1.9984007403       -1.1822173406        0.0915368603
 C         -2.8128697005       -0.6666006103        1.1319246900
 C         -4.0317505006        0.0401641692        0.7170783996
 C         -4.2864934605        0.1923556586       -0.5950660704
 C         -5.4706138007        0.9202955381       -1.1610821708
 C         -5.1529960310        2.4025621981       -1.4012345414
 C         -4.5065946112        3.0970434287       -0.2026148717
 H         -3.5164957211        2.6669320490       -0.0334703114
 H         -4.3581274114        4.1444356187       -0.4745210821
 C         -5.3232923713        3.0157442891        1.0947717983
 H         -5.3329424116        4.0016554293        1.5643465079
 H         -6.3575471812        2.7566132188        0.8656598083
 C         -4.7725759612        2.0341194296        2.1309546987
 H         -5.2860448013        2.2173546999        3.0785937386
 H         -3.7096199212        2.2308963200        2.2926146488
 C         -4.9435272008        0.5461271295        1.7996253494
 H         -4.6887512608       -0.0243836901        2.6976601096
 H         -5.9869308908        0.3435906191        1.5489943693
 H         -6.0794104210        2.9158246578       -1.6653108917
 H         -4.4690104609        2.4775049979       -2.2498955114
 H         -6.3103805807        0.8242213282       -0.4753793909
 H         -5.7353551305        0.4565450377       -2.1128751407
 O         -3.4570074704       -0.2664057216       -1.5645665002
 C         -2.2886700802       -0.9551090912       -1.2551221898
 O         -1.6272407801       -1.2918616015       -2.2530509896
 O         -2.5317231606       -0.7918114298        2.3542483501
 C         -0.7464304602       -1.9422505301        0.4933745707
 C          0.4459242898       -1.4281620802       -0.2727073694
 C          1.1824002600       -2.1997050104       -1.1608813090
 C          2.2534332100       -1.6501882005       -1.8443150991
 C          2.6195051797       -0.3316174703       -1.6504767997
 C          1.8989412694        0.4453623999       -0.7515046300
 C          0.8275542195       -0.1072871100       -0.0672546899
 H          0.2601306493        0.5018892501        0.6260814398
 N          2.2757188091        1.7810337901       -0.5334199006
 S          3.9054270990        2.1245171805       -0.3734751206
 O          3.9607003887        3.3104790309        0.4526976289
 O          4.5100184791        2.2395607301       -1.6772159906
 C          4.5984650293        0.7254492110        0.4910412001
 C          4.1044564992        0.4252317014        1.7451374502
 C          4.6058139194       -0.6776674182        2.4167676907
 C          5.5882513596       -1.4577856482        1.8259744511
 C          6.0787531897       -1.1393522486        0.5694043610
 C          5.5791415195       -0.0384693290       -0.1079621595
 H          5.9295099495        0.2429205507       -1.0876724296
 H          6.8443312798       -1.7461416686        0.1135010913
 H          5.9734957998       -2.3181141079        2.3500626515
 H          4.2257155894       -0.9261791778        3.3947222007
 H          3.3441432690        1.0544145115        2.1798058598
 H          1.7262106589        2.2583345503        0.1651931092
 H          3.4378429096        0.1145215296       -2.1919169998
 H          2.8072740702       -2.2563356106       -2.5446936688
 H          0.8989462103       -3.2230115106       -1.3419637086
 H         -0.6029757603       -1.6810060397        1.5552961706
 C         -0.8896269198       -3.4558699002        0.4416886814
 C         -2.2171942797       -4.1122308504        0.6717635215
 C         -1.5789260396       -4.1674162008       -0.6822117184
 H         -1.1711309093       -5.1103913209       -1.0162605880
 H         -1.9961189596       -3.5681496612       -1.4759125287
 H         -2.2489579796       -5.0137229302        1.2650069719
 H         -3.0764692699       -3.4710692505        0.8059346712
 H         -0.0281006398       -3.9547274398        0.8747789216
