  62
        -98.93922143
 C          0.9966515787        1.5639100177        0.5300569506
 C          1.9160012094        1.2578212098       -0.5007822203
 C          3.0441919083        0.3719177277       -0.1404273905
 C          3.1234246783       -0.1225384081        1.1064268498
 C          4.1957308912       -0.9636111365        1.7592085772
 C          5.0226555538       -1.9271837381        0.9073805369
 C          4.2006124914       -2.8020856668       -0.0485036796
 H          4.4904141163       -3.8454403898        0.0894923791
 H          3.1425895294       -2.7247448555        0.2017764114
 C          4.4038137130       -2.4523937091       -1.5229055577
 H          5.4730501304       -2.3364357836       -1.7131023341
 H          4.0534780045       -3.2904024392       -2.1303049567
 C          3.6737041978       -1.2015090406       -2.0073598633
 H          3.9190785159       -1.0610904234       -3.0625992129
 H          2.5925903895       -1.3498424008       -1.9472559746
 C          4.0167528736        0.0933144728       -1.2516811497
 H          5.0435544412        0.0803434036       -0.8945796171
 H          3.9084333533        0.9295960930       -1.9475303797
 H          5.5622267122       -2.5651730067        1.6105263250
 H          5.7745151675       -1.3754845048        0.3463576796
 H          4.8753267568       -0.2733347836        2.2704889310
 H          3.6794104233       -1.5278860790        2.5416523981
 O          2.1710043918        0.1469626963        2.0506125370
 C          1.1111840808        0.9984213092        1.8003609435
 O          0.3508601962        1.1677841180        2.7761231999
 H         -2.2126075598        0.9982275637        1.0326991625
 C         -2.1890920198        1.1562276509       -0.0359420666
 C         -1.1932300704        1.9475261978       -0.5955569978
 C         -1.1954653009        2.1486567470       -1.9709172814
 C         -2.1724258470        1.5690802873       -2.7602953269
 C         -3.1554242975        0.7723529009       -2.2014378687
 C         -3.1613808867        0.5625397052       -0.8276466189
 N         -4.1465555286       -0.2430819739       -0.2284176733
 S         -3.6657664932       -1.3813023976        0.9005163224
 O         -4.7275428435       -2.3646045292        0.8958318349
 O         -3.3981219060       -0.7481498357        2.1653571591
 C         -2.1815166700       -2.0786739529        0.2030572627
 C         -0.9466875299       -1.6877265244        0.6762270923
 C          0.1902908733       -2.1754959445        0.0529541723
 C          0.0779369646       -3.0422413175       -1.0218397636
 C         -1.1714562061       -3.4333680745       -1.4794259038
 C         -2.3125627699       -2.9429004949       -0.8671736019
 H         -3.3014041945       -3.2273742707       -1.1886108132
 H         -1.2561836382       -4.1120299633       -2.3126391159
 H          0.9697661015       -3.4151196696       -1.5013226191
 H          1.1577159001       -1.8595408654        0.4108186105
 H         -0.8835907674       -1.0156979806        1.5180387831
 H         -4.8041202752       -0.6442023173       -0.8820911911
 H         -3.9157375191        0.3193472613       -2.8191275530
 H         -2.1642454076        1.7346342655       -3.8267293878
 H         -0.4190886373        2.7428141417       -2.4224138332
 C         -0.1484978963        2.5428003368        0.3176544289
 H         -0.6106288721        2.6711434691        1.3064258158
 C          0.3574727861        3.8910324805       -0.1563436198
 C         -0.5389624059        5.0864354704       -0.0511986180
 C          0.6494242911        4.9582603127        0.8529225513
 H          1.4972895365        5.6061206169        0.6874893921
 H          0.4779359619        4.7232779576        1.8937598636
 H         -0.5094344719        5.8253099538       -0.8371144713
 H         -1.5190531559        4.9374260434        0.3767905786
 H          1.0197093080        3.8274979410       -1.0099438188
 O          1.8372726997        1.7222154440       -1.6658196526
