  62
        -98.93904325
 C         -1.4937174119       -0.8128662733       -0.3412254045
 C         -2.7942872439       -1.3613649542       -0.3215480444
 C         -3.9200739717       -0.4098252510       -0.4069565023
 C         -3.6487233619        0.9054435574       -0.5016086049
 C         -4.6215650472        2.0529786393       -0.5633943368
 C         -5.2429045640        2.3776245019        0.8048769050
 C         -5.6834880764        1.1618914033        1.6160071770
 H         -4.8272804364        0.5017095423        1.7660617323
 H         -5.9963516826        1.5156147604        2.6020511786
 C         -6.8402443303        0.3646839806        1.0181389487
 H         -7.1017333391       -0.4165806184        1.7366034579
 H         -7.7082797311        1.0190090089        0.9101270706
 C         -6.5656568475       -0.3036640363       -0.3305552645
 H         -6.6071265816        0.4185466612       -1.1414290220
 H         -7.3748630728       -1.0177176998       -0.5101987713
 C         -5.2643352197       -1.0972483751       -0.3966128646
 H         -5.2340856972       -1.8052760350        0.4396328120
 H         -5.2828746251       -1.7208645571       -1.2988322910
 H         -4.4974092243        2.9168753745        1.3942173124
 H         -6.0946214625        3.0418199727        0.6488306771
 H         -4.0572007664        2.9239488024       -0.9032877637
 H         -5.3921077652        1.8495492067       -1.3010194783
 O         -2.3736105864        1.3893604617       -0.5122030535
 C         -1.2688784908        0.5606892100       -0.4313368429
 O         -0.1742604264        1.1508855971       -0.4498974944
 H          2.4407207197       -1.3344997801       -0.2096285839
 C          1.9612989495       -1.1617832462        0.7381723980
 C          0.5956228171       -1.3433089464        0.8834805342
 C          0.0288093550       -1.1521076317        2.1415318262
 C          0.8059349146       -0.7669851852        3.2158161365
 C          2.1646221061       -0.5533083977        3.0588116198
 C          2.7426494809       -0.7560520846        1.8122521753
 N          4.1176819795       -0.5680939023        1.6256447997
 S          4.7357231170       -0.0887024169        0.1521130617
 O          4.7619288041       -1.2048471143       -0.7605196769
 O          6.0276667298        0.4757576590        0.4827895555
 C          3.6632604010        1.1919008575       -0.4713033923
 C          3.3939709254        2.2801080394        0.3331028683
 C          2.5820089162        3.2888917407       -0.1563769022
 C          2.0592073385        3.1958461405       -1.4358839423
 C          2.3434896906        2.0998256476       -2.2329856492
 C          3.1515569330        1.0857825738       -1.7474169529
 H          3.3903161438        0.2111871839       -2.3324998187
 H          1.9288692871        2.0266926269       -3.2261479803
 H          1.4189659800        3.9780008496       -1.8119902571
 H          2.3518913070        4.1411423655        0.4628585103
 H          3.8176288896        2.3287408938        1.3233461780
 H          4.6082153747       -0.1505027982        2.4018759142
 H          2.7717269363       -0.2385660956        3.8936615769
 H          0.3503363338       -0.6207378864        4.1836933414
 H         -1.0351507498       -1.3042053195        2.2625322765
 C         -0.2937844248       -1.7382068549       -0.2683555384
 H         -0.7019057402       -2.7401098364       -0.0679777095
 C          0.4262403987       -1.7599717514       -1.6003651220
 C          1.2217241258       -2.9618020930       -2.0110348438
 C         -0.0765106908       -2.6529656816       -2.6929919030
 H         -0.0536321612       -2.2888544682       -3.7091649620
 H         -0.9315196132       -3.2748545525       -2.4711845471
 H          2.1439043723       -2.8117774463       -2.5528387551
 H          1.2498581221       -3.7982889084       -1.3289662041
 H          0.7960379634       -0.7803752985       -1.8845063264
 O         -3.0166972102       -2.5998454454       -0.2265029855
