  62
        -98.94584699
 C         -1.6952475804       -1.3142413202        0.4198769306
 C         -1.3011140401       -0.2236086907       -0.3920075199
 C         -1.9166465300        1.0695169096       -0.0723505708
 C         -2.7485719803        1.1757812803        0.9780725290
 C         -3.4300573002        2.4321706106        1.4482876781
 C         -4.7232558600        2.7661077204        0.6914045776
 C         -4.5303452895        3.2738236995       -0.7382187726
 H         -5.4914230094        3.6738581895       -1.0673498231
 H         -3.8175095494        4.0989670794       -0.7346770529
 C         -4.0741876894        2.2003733089       -1.7361600619
 H         -4.6707319592        2.2740480485       -2.6480954321
 H         -4.2567999097        1.2100006792       -1.3128260014
 C         -2.6046542193        2.3000093985       -2.1452646716
 H         -2.4370299791        3.2343721382       -2.6851633921
 H         -2.3812386993        1.4729697881       -2.8236021311
 C         -1.6188635296        2.2310589790       -0.9714188513
 H         -0.6107629196        2.0928346887       -1.3699664010
 H         -1.6384288996        3.1615135193       -0.4039164419
 H         -5.3596707101        1.8781021704        0.6808848579
 H         -5.2423975900        3.5395288107        1.2622400170
 H         -3.6764215305        2.2749138212        2.5008898781
 H         -2.7352090201        3.2700820605        1.3793337978
 O         -3.0585552906        0.1167680407        1.7736302995
 C         -2.5395846407       -1.1419960395        1.5182546903
 O         -2.8961860210       -2.0166382690        2.3351155107
 O         -0.4793220899       -0.3137275313       -1.3408724096
 C         -1.1153960906       -2.7041624304        0.2171493015
 C          0.3767313795       -2.5991048707        0.0110334618
 C          1.0660177797       -3.2164403114       -1.0246160376
 C          2.4360219097       -3.0584463416       -1.1488395674
 C          3.1409893396       -2.2631153012       -0.2647184977
 C          2.4589858994       -1.6402554706        0.7742444218
 C          1.0974765394       -1.8373722103        0.9237554016
 H          0.5832843292       -1.3458014898        1.7379273212
 N          3.1171829693       -0.7816711101        1.6831152015
 S          2.7040417996        0.8420921099        1.5837590505
 O          3.5285188094        1.5028388403        2.5740693003
 O          1.2801675395        0.9973351601        1.7326316901
 C          3.2447636100        1.3271316489       -0.0465751396
 C          4.4691204801        1.9561227186       -0.1733314297
 C          4.9378369105        2.2664863579       -1.4392607997
 C          4.1824249907        1.9332213574       -2.5537636197
 C          2.9587467506        1.2986783276       -2.4087870697
 C          2.4797663202        0.9878515484       -1.1444972496
 H          1.5279422301        0.4959373986       -1.0117785496
 H          2.3659848508        1.0352850472       -3.2701515097
 H          4.5482868310        2.1692322268       -3.5406508598
 H          5.8887585406        2.7617141977       -1.5526901198
 H          5.0195802899        2.1955660991        0.7222872103
 H          4.1253045993       -0.8606095003        1.6541784118
 H          4.2047850196       -2.1165088314       -0.3777475175
 H          2.9574265898       -3.5444721121       -1.9592052070
 H          0.5295869897       -3.8063649717       -1.7493121775
 H         -1.2835718609       -3.2228493698        1.1761844618
 C         -1.8204059704       -3.5262190609       -0.8525150982
 C         -3.2301798003       -3.2202969709       -1.2600777887
 C         -2.1043643800       -2.9760593116       -2.2168706586
 H         -2.0051815299       -3.6349844921       -3.0670548882
 H         -1.8058222698       -1.9586550218       -2.4118647491
 H         -3.8991140604       -4.0470715509       -1.4470809684
 H         -3.7100135303       -2.3673878706       -0.8015774793
 H         -1.5608557806       -4.5786714009       -0.7934312275
