  62
        -98.93572170
 C          2.1921615432        1.2310417319       -0.0516069413
 C          2.9728593135        0.5230954344        0.8883464054
 C          3.8439305804       -0.5432184485        0.3592631993
 C          3.8542621235       -0.7781958022       -0.9655109694
 C          4.6457619707       -1.8044032710       -1.7364850103
 C          6.1233345573       -1.9695268292       -1.3489125345
 C          6.4222385831       -3.2920139587       -0.6406672800
 H          5.8411398760       -4.0823196160       -1.1204675816
 H          7.4781681088       -3.5330517542       -0.7814624823
 C          6.1436693477       -3.3020191374        0.8614427825
 H          6.8962349848       -2.6980473197        1.3729576587
 H          6.2592285230       -4.3301739074        1.2125693018
 C          4.7595960544       -2.7966903279        1.2738050200
 H          4.5304430066       -3.2154063160        2.2562843091
 H          3.9979999337       -3.1648290605        0.5870524432
 C          4.6713388403       -1.2671222719        1.3864765503
 H          4.2187713641       -0.9956875165        2.3456352392
 H          5.6764002119       -0.8355520391        1.3975382467
 H          6.4414652008       -1.1294658088       -0.7335298761
 H          6.7129813145       -1.9389997749       -2.2665005074
 H          4.5683559881       -1.4935222782       -2.7807385485
 H          4.1329152966       -2.7665286448       -1.6602319544
 O          3.0686246610       -0.0795760724       -1.8346495412
 C          2.2186300345        0.9282441166       -1.4122670238
 O          1.5589254770        1.4619963275       -2.3224605931
 O          2.9381697305        0.7630806070        2.1273154458
 C          1.2711364576        2.3350974100        0.4318125823
 C         -0.1648141214        2.0106963611        0.0976362486
 C         -1.0596225439        2.9449789735       -0.4068600800
 C         -2.3696154730        2.5872304235       -0.6765577761
 C         -2.8165020094        1.2990873219       -0.4492643474
 C         -1.9343407039        0.3595424069        0.0686201669
 C         -0.6252871262        0.7226719602        0.3433457906
 H          0.0594185065       -0.0118302055        0.7511467862
 N         -2.3766508588       -0.9565141858        0.2966496374
 S         -3.7536483018       -1.1685163534        1.2365280623
 O         -3.9179870512       -0.0887157908        2.1820747938
 O         -3.6301752789       -2.4981068450        1.7934191946
 C         -5.0860775677       -1.1557537386        0.0562186236
 C         -5.0577446389       -2.0834608095       -0.9665272623
 C         -6.0906694758       -2.0923990278       -1.8901140931
 C         -7.1296581509       -1.1807689970       -1.7743015760
 C         -7.1453043982       -0.2582483519       -0.7394202922
 C         -6.1143594290       -0.2431249620        0.1872773680
 H         -6.0810117192        0.4586511541        1.0053258863
 H         -7.9540262233        0.4492138504       -0.6510332016
 H         -7.9320228193       -1.1900944001       -2.4950039339
 H         -6.0819272838       -2.8085710425       -2.6959464163
 H         -4.2345858383       -2.7765444399       -1.0180911898
 H         -1.6439625408       -1.5789805886        0.6055902898
 H         -3.8330051112        1.0148607163       -0.6668599409
 H         -3.0514668804        3.3229338144       -1.0748138849
 H         -0.7307688323        3.9539925730       -0.5932363468
 H          1.3693357838        2.3393988700        1.5282860063
 C          1.7300427523        3.6759614919       -0.1020718137
 C          1.4918445803        4.9276235442        0.6870688301
 C          2.8762428832        4.3663232814        0.5724215602
 H          3.5976159185        4.8866391266       -0.0395095962
 H          3.3065613818        3.8813272764        1.4366850291
 H          1.2646878525        5.8382291153        0.1535656635
 H          0.9840837950        4.8322436538        1.6350443007
 H          1.6785335128        3.7312094138       -1.1836120994
