  62
        -98.93203374
 C          2.2937404924        1.0891127840       -0.1688236468
 C          3.6759600108        1.2262644557        0.1159779409
 C          4.5754841707        0.1907594473       -0.4211269059
 C          4.0463199298       -0.8343791277       -1.1103531773
 C          4.7664882924       -2.0222484830       -1.6863253038
 C          4.7612232083       -3.1960059529       -0.6921039403
 C          5.9160079676       -3.1989412868        0.3088730430
 H          5.7224339304       -4.0009726139        1.0249639199
 H          6.8431085401       -3.4431866753       -0.2139716866
 C          6.1184783733       -1.8912613951        1.0786000182
 H          5.1507806789       -1.4985537760        1.3968179073
 H          6.6865564864       -2.1193900406        1.9825872350
 C          6.8755746384       -0.8266149819        0.2709913038
 H          7.3120626133       -1.2924800527       -0.6122550817
 H          7.7096520355       -0.4474678156        0.8651221636
 C          6.0408906182        0.3925514446       -0.1461336730
 H          6.0711565494        1.1427542325        0.6503915902
 H          6.5001059020        0.8542837013       -1.0268076297
 H          4.7995378228       -4.1313012782       -1.2543163507
 H          3.8084939145       -3.1770304371       -0.1560102154
 H          5.7787291604       -1.7567111355       -1.9763758143
 H          4.2108758425       -2.3202594388       -2.5779266498
 O          2.7094649547       -0.9485603170       -1.3347690443
 C          1.7988098248       -0.0053463544       -0.8800007298
 O          0.6196110882       -0.2653821003       -1.1835960286
 O          4.1420113021        2.1768355150        0.7998809956
 C          1.3612441051        2.1467713756        0.3969075781
 C          0.2290107953        1.4854892469        1.1395875750
 C          0.4670606336        0.9455817142        2.4001012879
 C         -0.5372725173        0.2916366964        3.0883368720
 C         -1.7983212927        0.1594748143        2.5336708777
 C         -2.0418558760        0.6841174077        1.2720095661
 C         -1.0338762083        1.3515008639        0.5870957933
 H         -1.2257344425        1.7370312282       -0.4020370725
 N         -3.3208601538        0.5670693270        0.6953820092
 S         -4.1555188947       -0.8856492322        0.9036960328
 O         -4.7521870308       -0.8807962069        2.2172432489
 O         -3.3045020313       -2.0157443667        0.6054790705
 C         -5.4262577131       -0.7128324352       -0.3335471316
 C         -5.1676916929       -1.1427681059       -1.6214897533
 C         -6.1449592385       -0.9800776213       -2.5907599281
 C         -7.3556971742       -0.3906238557       -2.2582931595
 C         -7.6001368293        0.0356980509       -0.9614712305
 C         -6.6276488537       -0.1247266697        0.0128147603
 H         -6.7738451600        0.1833214836        1.0348292147
 H         -8.5434368666        0.4912186718       -0.7068880267
 H         -8.1137204823       -0.2656773222       -3.0153179431
 H         -5.9580257946       -1.3127619292       -3.5991806648
 H         -4.2150951439       -1.6025267417       -1.8341795280
 H         -3.3101506053        0.8285777757       -0.2814788468
 H         -2.5872703849       -0.3600583123        3.0532521964
 H         -0.3386107788       -0.1244375229        4.0649149999
 H          1.4556884122        1.0345657836        2.8298488835
 H          1.9801136170        2.6858249716        1.1324526189
 C          0.8886558176        3.1849178932       -0.6096741086
 C          1.8184244317        3.6936013601       -1.6694159958
 C          0.6239835303        2.8742597232       -2.0512007009
 H         -0.2032229982        3.3737339879       -2.5347207373
 H          0.7782344238        1.8613643564       -2.3881164205
 H          1.8153892382        4.7490036822       -1.8960123525
 H          2.7940497015        3.2342018364       -1.7344668980
 H          0.2369740570        3.9195435014       -0.1460482902
