  62
        -98.94155505
 C         -2.2149655000       -1.2721829398        0.3175155090
 C         -1.8058514900       -0.3430779995       -0.6715935207
 C         -2.6473351699        0.8567728606       -0.8037249903
 C         -3.7236044898        1.0180201505       -0.0135479601
 C         -4.7025803397        2.1596492306       -0.0651769297
 C         -4.2635841795        3.3996714603        0.7252470607
 C         -3.1258666295        4.2021280804        0.0930389909
 H         -3.3792857496        4.4357976508       -0.9414901891
 H         -3.0603074793        5.1481145002        0.6341948512
 C         -1.7576776995        3.5077241902        0.1449130505
 H         -0.9979133894        4.2199970400        0.4760501007
 H         -1.7863447196        2.7059931300        0.8873446602
 C         -1.2883855897        2.9332137406       -1.1915773597
 H         -1.1502742897        3.7456790108       -1.9081082495
 H         -0.3161981298        2.4596994405       -1.0356836900
 C         -2.2377466699        1.8950856209       -1.8052466600
 H         -3.1166852999        2.3909453711       -2.2167979597
 H         -1.7120646700        1.3855152211       -2.6161703702
 H         -3.9758321194        3.0893339599        1.7326867606
 H         -5.1338812994        4.0535820604        0.8163978510
 H         -4.8888182798        2.4362857510       -1.1033051896
 H         -5.6338158197        1.7882290406        0.3682949403
 O         -4.0656013498        0.1165347102        0.9453040996
 C         -3.3118250899       -1.0289729699        1.1485524092
 O         -3.7116414499       -1.7411977102        2.0915504790
 H         -0.1791613098       -0.5786708005        1.7891239090
 C          0.5198551801       -1.2493644004        1.3032597387
 C          0.0311916099       -2.3404543501        0.5952007284
 C          0.9447577197       -3.1818304700       -0.0275429819
 C          2.3048638398       -2.9423771202        0.0712418680
 C          2.7853781300       -1.8507376204        0.7691157983
 C          1.8791604501       -0.9863860705        1.3713719987
 N          2.3497771403        0.1599172792        2.0307207790
 S          3.6314017003        1.0026711793        1.3627789992
 O          4.8719857303        0.4320178290        1.8299858289
 O          3.4047604405        2.3828916192        1.7359791597
 C          3.5338220401        0.8143949999       -0.4108593809
 C          2.3086786001        0.8875725002       -1.0411130007
 C          2.2491659199        0.7359862907       -2.4164204508
 C          3.4133633398        0.5303031308       -3.1396648309
 C          4.6395160199        0.4723485804       -2.4949936611
 C          4.7025235200        0.6099532700       -1.1177452910
 H          5.6317585701        0.5515209297       -0.5743131811
 H          5.5444281798        0.3119600705       -3.0587863112
 H          3.3622185697        0.4100269211       -4.2102796310
 H          1.2859705799        0.7568102309       -2.9001141207
 H          1.4060253901        1.0298550301       -0.4689169706
 H          1.6237886004        0.7873234192        2.3427056893
 H          3.8414250900       -1.6497890406        0.8543436983
 H          3.0009570197       -3.6117909901       -0.4101748423
 H          0.5957437096       -4.0236883498       -0.6013511922
 C         -1.4623184701       -2.5672750799        0.5678771385
 H         -1.7627832401       -2.8737719202        1.5843640784
 C         -1.8751374003       -3.7003295296       -0.3639808818
 C         -3.1561498004       -3.6516173092       -1.1411071017
 C         -1.8436006605       -3.5427683891       -1.8538477718
 H         -1.5160765206       -4.3788931389       -2.4540587421
 H         -1.5480719904       -2.5806125890       -2.2406888815
 H         -3.7254040705       -4.5639978891       -1.2401894019
 H         -3.7687655903       -2.7658290492       -1.0532733214
 H         -1.6011355404       -4.6735537697        0.0308806178
 O         -0.8013952301       -0.4905382594       -1.4115642009
