  62
        -98.94486153
 C          1.9306007165       -0.2042349211       -0.0676833184
 C          2.9666414538       -1.0501968976       -0.5316751010
 C          4.2703020610       -0.4103637707       -0.7499124393
 C          4.3980599188        0.9112177625       -0.5312734884
 C          5.6796463592        1.6809783229       -0.6630858600
 C          6.4379157530        1.7277575246        0.6708521009
 C          6.5911194355        0.3628948965        1.3422635151
 H          7.1679153114        0.5138555267        2.2573747076
 H          5.6048837789        0.0001139320        1.6409655665
 C          7.2797544111       -0.6984541353        0.4728473250
 H          7.8201551694       -0.2156157081       -0.3421275928
 H          8.0164892978       -1.2257066330        1.0825887960
 C          6.3370739479       -1.7577369769       -0.1013015176
 H          5.7268921789       -2.1782829812        0.7019920353
 H          6.9459553045       -2.5690893800       -0.5088872369
 C          5.4006192678       -1.2826003366       -1.2194498427
 H          5.9800563855       -0.7789821330       -1.9957924821
 H          4.9326188636       -2.1681661508       -1.6592078702
 H          7.4239766977        2.1605890015        0.4925442687
 H          5.8960925025        2.3863004404        1.3537837587
 H          6.2988651778        1.2182737817       -1.4290729253
 H          5.4384243161        2.7001748980       -0.9696470107
 O          3.3726666744        1.6969359043       -0.1141168915
 C          2.1172903478        1.1622526356        0.1404603629
 O          1.2780518114        1.9933858798        0.5351979743
 H         -1.6871192446        0.6654474035        0.9059417136
 C         -1.5437510344        0.5695478604       -0.1565178017
 C         -0.4666844466       -0.1355719021       -0.6676289831
 C         -0.3117234384       -0.2089429586       -2.0507146908
 C         -1.2031993839        0.4201949369       -2.8962408354
 C         -2.2756940697        1.1284511779       -2.3813902948
 C         -2.4417993761        1.2063536900       -1.0045237013
 N         -3.5081618872        1.9391529221       -0.4596968360
 S         -4.4232576203        1.3306439391        0.7977949840
 O         -5.5876409166        2.1872073648        0.8430905413
 O         -3.6410951106        1.2519483238        2.0042131712
 C         -4.8946968166       -0.3001027968        0.2511290237
 C         -4.1239463498       -1.3891503434        0.6039274154
 C         -4.4672330660       -2.6382951459        0.1106335839
 C         -5.5671486423       -2.7761632668       -0.7216514367
 C         -6.3336837328       -1.6722120356       -1.0636748347
 C         -5.9933429011       -0.4204828863       -0.5778951350
 H         -6.5671841765        0.4619281160       -0.8105093119
 H         -7.1915054915       -1.7832989512       -1.7071697086
 H         -5.8294284827       -3.7503923241       -1.1030200761
 H         -3.8732385577       -3.4977650807        0.3777477750
 H         -3.2789121150       -1.2451282845        1.2563811697
 H         -4.0986315160        2.3870624273       -1.1450538248
 H         -2.9692623961        1.6293914536       -3.0395814009
 H         -1.0657922171        0.3593381293       -3.9652874597
 H          0.5296042677       -0.7583006589       -2.4507784395
 C          0.5634229412       -0.8084828902        0.2039429186
 H          0.6458664319       -1.8597553398       -0.1087894554
 C          0.2475988138       -0.7659460749        1.6833523117
 C         -0.6744978952       -1.7834788521        2.2831474726
 C          0.7947502501       -1.8395183365        2.5738199700
 H          1.1392705099       -1.5653883549        3.5597428559
 H          1.3783411505       -2.6204238005        2.1083081487
 H         -1.0817062501       -2.5352176150        1.6236681655
 H         -1.3440568780       -1.4702831042        3.0708444132
 H          0.2236827170        0.2423193787        2.0822237520
 O          2.8067818856       -2.2801722369       -0.7553723912
