  62
        -98.93917457
 C          2.7394389343        1.0378056044       -0.2420107666
 C          2.4417589240       -0.1018340031       -1.0277837947
 C          3.3405118977       -1.2540000548       -0.8572291234
 C          4.3787984246       -1.1693985155       -0.0069375283
 C          5.3304553624       -2.2869959248        0.3041225139
 C          4.8468849387       -3.1087121358        1.5073410879
 C          3.3821520855       -3.5369972315        1.4156793547
 H          2.7469837133       -2.6492744030        1.4652235961
 H          3.1634473163       -4.1369663167        2.3016893820
 C          3.0329667736       -4.3407646276        0.1553262054
 H          2.4144112694       -5.1929073437        0.4445911058
 H          3.9433156063       -4.7390453180       -0.2941141924
 C          2.2475304033       -3.5583909785       -0.8989058139
 H          1.3836592772       -3.0796312452       -0.4304392136
 H          1.8678913164       -4.2701800316       -1.6367356127
 C          3.0381768503       -2.4875376226       -1.6613786186
 H          2.4223305809       -2.1545314657       -2.5018590192
 H          3.9567649611       -2.9218209851       -2.0606237474
 H          4.9706381780       -2.5059806097        2.4100527434
 H          5.4814848138       -3.9920458156        1.5990681397
 H          6.3041653181       -1.8538278081        0.5388965418
 H          5.4299165758       -2.9271854785       -0.5702071800
 O          4.6513225362       -0.0510491038        0.7112999885
 C          3.8407168075        1.0653248634        0.6214159373
 O          4.2026168462        2.0155632205        1.3437099863
 O          1.4797633404       -0.1830486093       -1.8392145018
 C          1.9084561921        2.3124513051       -0.2695127878
 C          0.6414039238        2.1517406247        0.5375922656
 C          0.4444990281        2.8816119966        1.7038841960
 C         -0.7180062429        2.7323610324        2.4400852247
 C         -1.7035526364        1.8493836499        2.0359768446
 C         -1.5158080092        1.1143942859        0.8725260198
 C         -0.3541680851        1.2752687268        0.1300695325
 H         -0.2068896342        0.6926271563       -0.7675414213
 N         -2.4890165975        0.1761014725        0.4595095977
 S         -4.0447561838        0.7434749600        0.1275306229
 O         -4.0456112026        1.5220048386       -1.0937618033
 O         -4.5595270056        1.4049686113        1.2986794240
 C         -4.9021770942       -0.7964686498       -0.1281758816
 C         -5.1297858960       -1.2457246023       -1.4143134906
 C         -5.7753761260       -2.4588387570       -1.5962899067
 C         -6.1765628803       -3.1989110492       -0.4945359404
 C         -5.9402866786       -2.7344893209        0.7909847265
 C         -5.2965135417       -1.5221047923        0.9793607722
 H         -5.0991927754       -1.1187038076        1.9586668023
 H         -6.2553130217       -3.3125261995        1.6447745194
 H         -6.6787272258       -4.1424896335       -0.6389782766
 H         -5.9620706733       -2.8211416255       -2.5944771754
 H         -4.8078828578       -0.6340349032       -2.2420084385
 H         -2.1649733216       -0.3325410732       -0.3543250804
 H         -2.6150383191        1.7331540799        2.5983841100
 H         -0.8570468593        3.3069268128        3.3435736152
 H          1.2158951297        3.5611724600        2.0371853947
 H          2.5241453203        3.0745549684        0.2265058785
 C          1.6040396897        2.7900350637       -1.6766056967
 C          1.2535051251        4.2299103680       -1.8939212197
 C          2.5729583467        3.6993382865       -2.3673620823
 H          2.7305538165        3.5741906589       -3.4280845835
 H          3.4621112716        3.9864226729       -1.8246930105
 H          0.5001487220        4.4709512950       -2.6283426846
 H          1.2484754742        4.8792082223       -1.0313166734
 H          1.0980264584        2.0522876072       -2.2849564999
