  62
        -98.93841573
 C          2.8287318922        0.3707263319       -0.2779923236
 C          2.5275139651        1.3058555339        0.7422255908
 C          1.8482715834        2.5331573907        0.2973054794
 C          1.5248199764        2.6995927137       -0.9964349843
 C          0.7638588210        3.8588982559       -1.5789808287
 C         -0.7573806890        3.7237368623       -1.4146000040
 C         -1.2873913715        4.0006266479       -0.0060042990
 H         -0.8704155680        4.9386858137        0.3627362781
 H         -2.3675089697        4.1357422311       -0.0930817731
 C         -1.0120836084        2.8764397938        1.0029383731
 H         -0.7820466334        1.9568762130        0.4577635408
 H         -1.9147298612        2.6860729903        1.5896859341
 C          0.1107679625        3.1742642736        1.9969910165
 H          0.2601801152        2.2910233511        2.6235309770
 H         -0.1871618368        4.0007067156        2.6465328775
 C          1.4560760519        3.5259561933        1.3512436981
 H          1.4200437469        4.5292171137        0.9279003471
 H          2.2229097076        3.5002120902        2.1298467184
 H         -1.0502749135        2.7150268306       -1.7197344542
 H         -1.2243557372        4.4319522731       -2.1033929311
 H          0.9964630450        3.8798165594       -2.6457440785
 H          1.1027112873        4.7930383137       -1.1295522658
 O          1.8686442644        1.7976077125       -1.9540672772
 C          2.4881800678        0.6100332180       -1.6139020744
 O          2.7063754787       -0.1501812033       -2.5801079066
 O          2.7824205798        1.1494694600        1.9640995019
 C          3.3653862797       -1.0310865557       -0.0221097516
 C          2.1978635353       -1.9837880849       -0.1252625625
 C          2.2830393355       -3.1837165223       -0.8192941694
 C          1.1646401508       -3.9828477392       -0.9883295492
 C         -0.0652354102       -3.5900702482       -0.4907085971
 C         -0.1557772922       -2.3973596298        0.2119322536
 C          0.9711531401       -1.6189034725        0.4115238433
 H          0.8838001567       -0.6855412757        0.9531838109
 N         -1.4325648155       -1.9351737094        0.6410520657
 S         -2.1813739636       -1.1359920058       -0.6602228315
 O         -2.3688595951       -2.1007058371       -1.7139567035
 O         -1.4425713987        0.0587973107       -1.0075047341
 C         -3.7599605993       -0.7060839780        0.0475962966
 C         -4.1039403496        0.6200085410        0.2197098035
 C         -5.3312762181        0.9242504101        0.7886857583
 C         -6.1855138742       -0.0972256358        1.1743709938
 C         -5.8248625686       -1.4246912249        0.9938964322
 C         -4.6006486815       -1.7358928143        0.4248932942
 H         -4.2795829754       -2.7507271905        0.2602553157
 H         -6.4927210523       -2.2158333795        1.2941046801
 H         -7.1392740823        0.1427814751        1.6170646762
 H         -5.6145271791        1.9551382346        0.9278071329
 H         -3.4075671511        1.3799848282       -0.0965811945
 H         -1.3283986459       -1.2496415108        1.3810188337
 H         -0.9552112979       -4.1720326425       -0.6639960809
 H          1.2461337269       -4.9075094841       -1.5391544482
 H          3.2254497830       -3.4723963983       -1.2614542221
 H          4.0440755612       -1.2573899697       -0.8608537804
 C          4.1569284599       -1.1887209579        1.2649292769
 C          3.5960684686       -1.8489972477        2.4848687660
 C          4.6501377236       -2.5435171484        1.6792123152
 H          5.6454371848       -2.6243682908        2.0886349388
 H          4.3447276685       -3.3909152183        1.0844809929
 H          3.8583700592       -1.4317065962        3.4446551199
 H          2.5870681363       -2.2292931369        2.4370044472
 H          4.8264991515       -0.3536037057        1.4348578856
