  62
        -98.93742865
 C          1.9807140619        0.8992882250        0.5311898850
 C          2.2113518898        0.1978227027       -0.6731755496
 C          2.5592778727       -1.2316331844       -0.5530060954
 C          2.5991885940       -1.7880849003        0.6718499536
 C          2.9631156528       -3.2031293523        1.0339741807
 C          4.4790413806       -3.4601753261        0.9691632207
 C          5.1903027883       -2.8364620072       -0.2294416567
 H          4.9959350959       -1.7623708896       -0.2410321701
 H          6.2654231676       -2.9702157304       -0.0837070014
 C          4.8257795805       -3.4334165742       -1.5864336832
 H          5.4393936033       -2.9313704551       -2.3386415716
 H          5.0911946454       -4.4930187364       -1.5933470127
 C          3.3598080112       -3.3018803641       -2.0015373027
 H          3.2938667756       -3.5808440246       -3.0573461723
 H          2.7366398272       -4.0056732474       -1.4565009274
 C          2.7852288513       -1.8924545731       -1.8916127991
 H          3.4179846620       -1.2020504613       -2.4608502055
 H          1.8104724536       -1.8734125388       -2.3949854804
 H          4.6469923821       -4.5382736944        0.9756300172
 H          4.9276958020       -3.0426180384        1.8736950698
 H          2.6256457010       -3.3605585819        2.0608622355
 H          2.4191441524       -3.8968883033        0.3995891458
 O          2.3450326478       -1.0754839376        1.8077750284
 C          2.0223406733        0.2660446773        1.7707161055
 O          1.8037513253        0.7792491284        2.8894879283
 H         -0.5267852500        0.7526725473        0.4031702988
 C         -0.6658621659        1.6203117665       -0.2266084497
 C          0.3446345485        2.5686161710       -0.3199376368
 C          0.1383632796        3.6801048986       -1.1275898328
 C         -1.0474583882        3.8265812284       -1.8264312229
 C         -2.0482766258        2.8779010174       -1.7338516200
 C         -1.8495981763        1.7584795442       -0.9317299245
 N         -2.8276481349        0.7532373032       -0.8562171025
 S         -2.8996638981       -0.2519732672        0.4923319622
 O         -2.8979266850        0.5351218608        1.7061913139
 O         -1.8790446872       -1.2646787516        0.3783088148
 C         -4.5070011984       -0.9837579288        0.2445681275
 C         -5.6077750959       -0.4187727347        0.8609357718
 C         -6.8589289457       -0.9721781994        0.6385445691
 C         -6.9882106804       -2.0736629946       -0.1940854755
 C         -5.8743556867       -2.6309129162       -0.8044721542
 C         -4.6203612243       -2.0827865372       -0.5856044034
 H         -3.7248895959       -2.4855102517       -1.0298043565
 H         -5.9775789412       -3.4893063018       -1.4484315947
 H         -7.9626944534       -2.5026041571       -0.3658416684
 H         -7.7257528242       -0.5433560686        1.1148202687
 H         -5.4569135239        0.4302384287        1.5081321788
 H         -3.7426739692        1.0601537364       -1.1555323846
 H         -2.9706086002        2.9926062371       -2.2822015246
 H         -1.1948552274        4.6948072867       -2.4506448667
 H          0.9071499093        4.4308441136       -1.2104197357
 C          1.6024040828        2.3668811338        0.4921113456
 H          1.3784012348        2.6490314777        1.5328160428
 C          2.7713038364        3.1975928953        0.0008694161
 C          2.9938184556        4.5834153968        0.5254471691
 C          3.9061213807        3.4697980086        0.9405355066
 H          4.9134532683        3.4522440370        0.5526319050
 H          3.8178500683        3.0805518776        1.9449098993
 H          3.3797486513        5.3340013672       -0.1477660591
 H          2.2940207219        4.9602364415        1.2562165600
 H          3.0160485494        2.9928689029       -1.0350174013
 O          2.1407487903        0.7382876104       -1.8091049792
