  62
        -98.93822253
 C         -1.5770493461       -0.8435729746        0.8723879087
 C         -2.0410552032       -0.2896297525       -0.3460218265
 C         -2.3729268060        1.1487960319       -0.3277562567
 C         -2.1421006158        1.8694616259        0.7815852217
 C         -2.4343356238        3.3249499067        1.0543466590
 C         -2.1826444608        4.3347425122       -0.0707914583
 C         -0.9662283764        4.0315586714       -0.9576395991
 H         -0.3341759818        4.9200592670       -1.0147252555
 H         -0.3622005043        3.2320826272       -0.5239365810
 C         -1.3505987249        3.6304884808       -2.3828718270
 H         -2.1540525246        4.2827094392       -2.7342854271
 H         -0.4869273034        3.7866049675       -3.0339463315
 C         -1.7719755510        2.1709829960       -2.5416689645
 H         -2.0811631793        2.0180533374       -3.5790245092
 H         -0.9065471786        1.5264930342       -2.3644354863
 C         -2.9085213007        1.7086552172       -1.6141268914
 H         -3.6226692883        2.5103694980       -1.4371631492
 H         -3.4286378752        0.8832711465       -2.1083575453
 H         -2.0516417645        5.3082701809        0.4052312333
 H         -3.0689974658        4.4098629053       -0.6991620994
 H         -3.4778912208        3.4027883921        1.3749568870
 H         -1.8153038822        3.5811599331        1.9180005568
 O         -1.6055566216        1.3124568615        1.9059597973
 C         -1.3117729171       -0.0385842935        1.9804432289
 O         -0.8171345874       -0.3919882126        3.0697435785
 H          1.0290806682       -1.0395724485        0.3798677633
 C          0.8575300682       -1.8457823066       -0.3187299826
 C         -0.2628228237       -2.6509989005       -0.1544108506
 C         -0.4703807740       -3.6911308440       -1.0489112542
 C          0.4150820541       -3.8951508333       -2.0939467954
 C          1.5028661913       -3.0619075817       -2.2801442560
 C          1.7202343626       -2.0193914858       -1.3858780367
 N          2.8062641034       -1.1410567522       -1.5281695235
 S          2.5843079552        0.4818482506       -1.1715132720
 O          1.2410819603        0.9219061320       -1.4589591510
 O          3.6429134753        1.1537803340       -1.8975489731
 C          2.9236337581        0.6037569522        0.5710611807
 C          4.1072658128        0.0800728312        1.0519204292
 C          4.3798729327        0.1798168995        2.4066258536
 C          3.4702226678        0.7970696267        3.2524494072
 C          2.2889349344        1.3238512263        2.7538101321
 C          2.0140771350        1.2296448465        1.3993120335
 H          1.0982679278        1.6135624074        0.9751278467
 H          1.5708967352        1.7901810176        3.4094280627
 H          3.6788490532        0.8678506176        4.3082514622
 H          5.2971360378       -0.2269555243        2.8008240019
 H          4.7868586514       -0.3926141016        0.3627433381
 H          3.3508648378       -1.2692734394       -2.3687405958
 H          2.1732010419       -3.2069438377       -3.1138068012
 H          0.2422658152       -4.7033938697       -2.7885697001
 H         -1.3369573810       -4.3235538302       -0.9469883816
 C         -1.1797992366       -2.3068137437        0.9931402088
 H         -0.5829866050       -2.3552324149        1.9196319645
 C         -2.3343028455       -3.2788504627        1.1762456728
 C         -3.6306266913       -2.8296262275        1.7804874793
 C         -3.5757487010       -3.2335504422        0.3392127815
 H         -4.0330718178       -4.1701767600        0.0545430979
 H         -3.6404368469       -2.4674857972       -0.4162715649
 H         -4.1245104915       -3.4840408110        2.4830968838
 H         -3.7342906011       -1.7793196647        2.0126441378
 H         -1.9857779714       -4.2636859486        1.4725279808
 O         -2.2053809438       -0.9552337199       -1.4000490952
