  62
        -98.93307433
 C         -1.9016688626       -0.6821699958       -0.5333559400
 C         -2.7929793766       -1.0839662083        0.4933755397
 C         -3.9070353323       -0.1763138151        0.8119903831
 C         -4.0055612023        0.9851345398        0.1432841236
 C         -5.0767351803        2.0327523240        0.2742712450
 C         -6.1955002398        1.7994694887       -0.7552126960
 C         -7.3030757675        0.8500482279       -0.2997758746
 H         -7.9025167895        1.3416891717        0.4692764627
 H         -7.9535551884        0.6742593620       -1.1596670573
 C         -6.8259448552       -0.5004960306        0.2405604651
 H         -6.0280378701       -0.8891948277       -0.3947644214
 H         -7.6609450058       -1.2007937788        0.1760205573
 C         -6.3458022043       -0.4322535493        1.6979362891
 H         -6.6454971644        0.5233160403        2.1277274245
 H         -6.8495527376       -1.2057509134        2.2812984575
 C         -4.8377566400       -0.6387474825        1.8997185039
 H         -4.5351592856       -0.1672011529        2.8408101396
 H         -4.6268493064       -1.7075110832        2.0064348363
 H         -5.7338351472        1.4169359986       -1.6692562369
 H         -6.6529136933        2.7605773159       -0.9989153678
 H         -5.4709752079        2.0568019081        1.2859064569
 H         -4.6002915859        2.9917023459        0.0592356018
 O         -3.1214782924        1.3439918598       -0.8258324538
 C         -2.0526222115        0.5353980339       -1.1978682415
 O         -1.3607877417        1.0211967003       -2.1095184937
 H          0.4646035969        0.7054499306       -0.1417453313
 C          0.8711157488       -0.1451744845        0.3851897220
 C          0.3664933724       -1.4180773962        0.1531836791
 C          0.9045862709       -2.4894964240        0.8582100651
 C          1.9190112900       -2.2953270694        1.7781626088
 C          2.4325867745       -1.0292808436        1.9920376067
 C          1.9065158157        0.0478200791        1.2884128334
 N          2.4316355483        1.3505454749        1.4555318721
 S          3.3571791138        1.9067564695        0.1721767751
 O          3.8945202180        3.1782074224        0.6030052532
 O          2.5683858536        1.9033403885       -1.0301913310
 C          4.6748068431        0.7078731653        0.0474336825
 C          4.4376671456       -0.4753273117       -0.6241329492
 C          5.4317025046       -1.4409392901       -0.6490746376
 C          6.6377004803       -1.2089052588       -0.0054961925
 C          6.8617334831       -0.0141151410        0.6618425257
 C          5.8696665668        0.9527942091        0.6957831943
 H          5.9994540046        1.8971554825        1.1995082149
 H          7.8021208556        0.1654873483        1.1575503145
 H          7.4078620117       -1.9636001103       -0.0267578101
 H          5.2575494669       -2.3689709110       -1.1692384502
 H          3.4912207718       -0.6177721260       -1.1203735212
 H          2.9618578448        1.4610674298        2.3099264313
 H          3.2296555675       -0.8701769345        2.7029522782
 H          2.3171307216       -3.1350021048        2.3263009891
 H          0.5036875236       -3.4786242218        0.6940049208
 C         -0.7595380737       -1.6394801467       -0.8254862758
 H         -1.1715384625       -2.6403820255       -0.6154159947
 C         -0.2944284199       -1.6515342659       -2.2726005481
 C          0.8772626892       -0.8738113414       -2.7821089809
 C          0.9741178576       -2.3621097039       -2.6467124470
 H          0.9862602848       -2.9607012645       -3.5448525607
 H          1.5770465177       -2.7557658210       -1.8418874039
 H          0.7918612830       -0.4437839810       -3.7687838189
 H          1.4138617911       -0.2343915348       -2.0986027663
 H         -1.1313020156       -1.7491738853       -2.9574162743
 O         -2.6668602412       -2.1753568870        1.1123638632
