  62
        -98.94436497
 C         -1.9677298933       -1.3353260144        0.0522625790
 C         -2.2667777838       -0.3724544159       -0.9418452941
 C         -3.6497695255        0.1297049408       -0.9561845304
 C         -4.5377942565       -0.3361743589       -0.0602231060
 C         -5.9586514644        0.1289664822        0.0675729174
 C         -6.0760701175        1.2910752073        1.0635583121
 C         -5.0670804221        2.4142711823        0.8238368117
 H         -4.0600071203        2.0375800640        1.0182965941
 H         -5.2654476512        3.1931399027        1.5633886613
 C         -5.1170680270        3.0223883169       -0.5847830984
 H         -5.0747079626        4.1101982895       -0.4978936818
 H         -6.0650456301        2.7728104921       -1.0628111831
 C         -3.9633182879        2.6039194992       -1.4981979800
 H         -3.0125129797        2.7673447497       -0.9839771938
 H         -3.9747665023        3.2531970059       -2.3778982025
 C         -3.9999548817        1.1543518341       -1.9988302379
 H         -3.2446117036        1.0554405161       -2.7838280794
 H         -4.9776751187        0.9410829344       -2.4354265809
 H         -5.9196988819        0.9006922963        2.0718391260
 H         -7.0896998254        1.6921924141        1.0080865031
 H         -6.3250887437        0.4361262320       -0.9100016473
 H         -6.5623718513       -0.7066699068        0.4256785975
 O         -4.2196788560       -1.2665534123        0.8741901938
 C         -2.9378128223       -1.7782247834        0.9589272671
 O         -2.7851366168       -2.6196522187        1.8665103944
 H          0.4533386545        0.3553561779       -0.7099161210
 C          0.8155810197        0.1211188955        0.2799930115
 C          0.3589222177       -1.0242799369        0.9168306020
 C          0.8154255282       -1.2973847934        2.2009056442
 C          1.7059520463       -0.4447497615        2.8304119507
 C          2.1609542469        0.6945595328        2.1913578581
 C          1.7044151881        0.9785666005        0.9108355466
 N          2.1763830746        2.1295980670        0.2446244687
 S          3.8387950722        2.1935403019        0.0308381062
 O          4.4612421827        2.5868665622        1.2700006433
 O          4.0563364060        3.0724009087       -1.0960205481
 C          4.2919906897        0.5169431771       -0.3751270244
 C          3.9674905460        0.0422928106       -1.6304021532
 C          4.2369685834       -1.2812889648       -1.9365910258
 C          4.8135737120       -2.1063478147       -0.9830876609
 C          5.1338937708       -1.6142082242        0.2723720017
 C          4.8700054000       -0.2899797149        0.5835025399
 H          5.1049944268        0.1326611996        1.5463555597
 H          5.5831959968       -2.2581732508        1.0109660932
 H          5.0153315888       -3.1389063865       -1.2210666132
 H          3.9921343212       -1.6640811901       -2.9145895542
 H          3.5221999790        0.7136038350       -2.3474333773
 H          1.7092224546        2.2852528131       -0.6379223318
 H          2.8607759251        1.3673341536        2.6604846526
 H          2.0503520300       -0.6702391573        3.8281533088
 H          0.4572551634       -2.1810349951        2.7090282090
 C         -0.5928780822       -1.9660514785        0.2189556810
 H         -0.7470694769       -2.8311816676        0.8769811390
 C         -0.0027579816       -2.4588935969       -1.0890324904
 C          1.1083836522       -3.4624404532       -1.0467487906
 C         -0.2534896159       -3.8706220263       -1.5212942798
 H         -0.3987461279       -4.0685121254       -2.5727443687
 H         -0.8559196482       -4.4922308716       -0.8746642564
 H          1.4314995748       -3.8076793892       -0.0765320561
 H          1.9032844664       -3.3796123594       -1.7711490524
 H          0.0286293979       -1.7029169848       -1.8618202252
 O         -1.4412713202        0.0617349784       -1.7903099697
