  62
        -98.94200815
 C          0.6965956493        1.3590172727        0.5216014194
 C          1.1229542839        0.8256563336       -0.7160348710
 C          2.1241065014       -0.2549691910       -0.6515625597
 C          2.5406161884       -0.6877461170        0.5511542050
 C          3.6268790942       -1.6863953579        0.8438503856
 C          4.9807228868       -0.9765548825        1.0231153359
 C          5.7796835964       -0.7756378518       -0.2636478353
 H          6.6532421865       -0.1699292174       -0.0116175234
 H          6.1432034653       -1.7433961304       -0.6153440214
 C          5.0208655352       -0.0924372778       -1.4037871150
 H          4.4449877231        0.7473048630       -1.0102515471
 H          5.7574860202        0.3181054377       -2.0972371050
 C          4.0926599015       -1.0472075569       -2.1689143874
 H          4.3251971679       -2.0736609144       -1.8874412466
 H          4.2938797377       -0.9662584425       -3.2390958635
 C          2.5928647864       -0.7819532459       -1.9800454582
 H          2.2635823109       -0.0309483020       -2.7050347383
 H          2.0344479690       -1.6962261642       -2.2033295146
 H          4.7936709404       -0.0085823557        1.4953999339
 H          5.5937013203       -1.5612211832        1.7122349361
 H          3.3653126528       -2.1664131165        1.7884116153
 H          3.6814252345       -2.4411186773        0.0660577033
 O          2.0458774017       -0.1933962600        1.7212372817
 C          1.1291642876        0.8400102467        1.7399785052
 O          0.7801207800        1.2028824627        2.8831637651
 H         -1.5913027044        0.2241692705        0.4896783682
 C         -2.0759147087        0.9641957849       -0.1308705496
 C         -1.5181525820        2.2319588247       -0.2338350903
 C         -2.1607227934        3.1789630560       -1.0216284738
 C         -3.3259459478        2.8549411232       -1.6941207416
 C         -3.8760988370        1.5912536869       -1.5912362045
 C         -3.2420630059        0.6366117844       -0.8027530834
 N         -3.7551563814       -0.6615266055       -0.7098590203
 S         -3.3947578146       -1.6841341947        0.5498151336
 O         -4.3602656000       -2.7554748247        0.4175970243
 O         -3.3886120629       -1.0016089415        1.8231044620
 C         -1.7816664633       -2.3320689144        0.1712614412
 C         -1.5166309483       -2.7398423936       -1.1206136448
 C         -0.2919719590       -3.3239615729       -1.3997017607
 C          0.6376567615       -3.4992673624       -0.3863988706
 C          0.3577669173       -3.0811306894        0.9047044149
 C         -0.8619925947       -2.4888581484        1.1882311388
 H         -1.1124018299       -2.1388632465        2.1782541770
 H          1.0790324632       -3.2149854903        1.6945072144
 H          1.5849312412       -3.9680246992       -0.6005737048
 H         -0.0700359241       -3.6466078429       -2.4044810231
 H         -2.2655942469       -2.5969195076       -1.8815271859
 H         -4.6643739165       -0.8169869446       -1.1167837396
 H         -4.7840331030        1.3392091144       -2.1171124786
 H         -3.8143443511        3.5986661870       -2.3052779533
 H         -1.7486422458        4.1706417753       -1.1111221453
 C         -0.2625407593        2.5331329765        0.5473260600
 H         -0.5475875123        2.6716093029        1.6017024533
 C          0.4527821817        3.7815738663        0.0676538960
 C          0.1048093852        5.1253236208        0.6318988849
 C          1.4021470665        4.4715714895        0.9988277239
 H          2.3185536888        4.8768426353        0.5966702589
 H          1.5061969252        4.0588331530        1.9922081431
 H          0.1338562962        5.9836387508       -0.0224919673
 H         -0.6690863719        5.1678943976        1.3835775297
 H          0.7332636811        3.7206090530       -0.9778686683
 O          0.7056603047        1.2459404977       -1.8268126343
