  62
        -98.94539846
 C          2.4650748011        1.2010752075       -0.0007996341
 C          3.2397458824        0.4803806100        0.9385888125
 C          3.9555477680       -0.6884684385        0.4156488154
 C          3.8486092115       -1.0086420798       -0.8870220333
 C          4.5340834868       -2.1589841489       -1.5735474979
 C          3.7930934972       -3.4966248722       -1.4401372978
 C          3.8552998122       -4.1394424830       -0.0538907358
 H          3.4856284471       -5.1614412656       -0.1579197006
 H          4.8943772523       -4.1996545434        0.2711721755
 C          3.0205864460       -3.4204533200        1.0152678396
 H          2.2981442045       -2.7601598009        0.5279901965
 H          2.4453211576       -4.1552921175        1.5834851380
 C          3.8407737203       -2.6094213544        2.0190255068
 H          3.1500130921       -2.1154057873        2.7073142997
 H          4.4724666441       -3.2825584549        2.6025017058
 C          4.7292764318       -1.5313690327        1.3843290519
 H          5.5846408067       -1.9913910689        0.8905858887
 H          5.0926017075       -0.8756059611        2.1792575597
 H          2.7488281043       -3.3484044588       -1.7269990564
 H          4.2385777299       -4.1890565260       -2.1580894464
 H          5.5488544505       -2.2639512998       -1.1888165913
 H          4.5877696005       -1.9002812506       -2.6331777503
 O          3.0943880744       -0.2883314102       -1.7596890234
 C          2.3673995481        0.8171327853       -1.3384604900
 O          1.6957985795        1.3611182945       -2.2349948529
 O          3.3246891164        0.7958463741        2.1563232544
 C          1.6776479284        2.4107287080        0.4688618091
 C          0.2026656227        2.1866620423        0.2407870102
 C         -0.6350396810        3.1273749943       -0.3428918782
 C         -1.9767005853        2.8460665625       -0.5366751765
 C         -2.5127793276        1.6322254492       -0.1491709562
 C         -1.6851286575        0.6851425637        0.4401480554
 C         -0.3435352084        0.9713431569        0.6361418493
 H          0.3006945217        0.2295941177        1.0936815041
 N         -2.2214982412       -0.5492892580        0.8501947760
 S         -3.1186506303       -1.4272319041       -0.2678352768
 O         -3.0026800229       -2.8053812333        0.1582952365
 O         -2.7142515596       -1.1364981726       -1.6237734192
 C         -4.7879303821       -0.8735569499        0.0103007467
 C         -5.5145527851       -0.3226573476       -1.0268861131
 C         -6.8116004847        0.1025641322       -0.7840649677
 C         -7.3558822902       -0.0311840856        0.4840651042
 C         -6.6140102492       -0.5904469398        1.5139877772
 C         -5.3172369528       -1.0177598984        1.2778885550
 H         -4.7081973498       -1.4608253224        2.0479546926
 H         -7.0409315903       -0.6937792520        2.4985363840
 H         -8.3645800696        0.3019792028        0.6705661784
 H         -7.3899020899        0.5366321919       -1.5837760297
 H         -5.0473816505       -0.2343873570       -1.9950506955
 H         -1.5473440188       -1.1488966328        1.3042867298
 H         -3.5551070907        1.4077972524       -0.3051942793
 H         -2.6143100706        3.5840721019       -0.9988912939
 H         -0.2359021673        4.0774749651       -0.6572706890
 H          1.8509178808        2.4676457496        1.5541939024
 C          2.2094802354        3.6734673845       -0.1750164612
 C          2.0993634376        4.9882050557        0.5360384039
 C          3.4326953928        4.3179816942        0.4026595904
 H          4.1604476653        4.7407915981       -0.2735052832
 H          3.8670064671        3.8590126452        1.2788968222
 H          1.9136740571        5.8764440234       -0.0486539582
 H          1.6303131203        4.9925241128        1.5081898881
 H          2.1126177508        3.6614257778       -1.2549063371
