  62
        -98.93814717
 C         -1.6683842761       -1.5221782697        0.4984164926
 C         -2.2758627442       -0.8517943278       -0.5899874798
 C         -3.1404675403        0.2955619678       -0.2505157300
 C         -3.2451868997        0.6900708129        1.0296560714
 C         -4.0962230448        1.7837803614        1.6279932525
 C         -4.2712974854        3.0814455373        0.8322991985
 C         -3.0175896718        3.5408103835        0.0743691599
 H         -2.8041431443        4.5787788800        0.3358649783
 H         -2.1618180046        2.9381264742        0.3817137974
 C         -3.1753221267        3.4544650068       -1.4452666949
 H         -2.4542177476        4.1251879131       -1.9185583828
 H         -4.1714627557        3.8093138997       -1.7182707928
 C         -2.9613297743        2.0615322627       -2.0339407085
 H         -1.9144270771        1.7656816022       -1.9256604812
 H         -3.1728725342        2.1109418478       -3.1045607305
 C         -3.8273720574        0.9526467165       -1.4141455265
 H         -4.8101356944        1.3280657012       -1.1391338530
 H         -3.9552182911        0.1679314094       -2.1646487985
 H         -5.0970385285        2.9719772305        0.1311058276
 H         -4.5692819181        3.8494055976        1.5485390376
 H         -5.0824716405        1.3597901442        1.8410852266
 H         -3.6326431217        2.0071759436        2.5924344235
 O         -2.5617593447        0.0697928845        2.0357203180
 C         -1.7775206124       -1.0431750542        1.8038916566
 O         -1.2301326258       -1.5073302657        2.8264227752
 O         -2.1366092869       -1.1972472480       -1.7904663967
 C         -0.8136630323       -2.7642680155        0.2934311745
 C          0.5120436387       -2.3417528127       -0.2915572288
 C          0.8366611520       -2.4695943105       -1.6352423368
 C          2.0590426413       -2.0173919433       -2.1033538215
 C          2.9791220121       -1.4383497424       -1.2484085163
 C          2.6596116064       -1.2999484045        0.0969449452
 C          1.4330398895       -1.7467879441        0.5631303756
 H          1.1764378290       -1.6313517074        1.6087609094
 N          3.5874874527       -0.7186892640        0.9831607607
 S          4.2460021287        0.7631059612        0.5716296869
 O          5.2026850046        0.5810226731       -0.4903438990
 O          4.7615066385        1.3057511752        1.8076625658
 C          2.8700815530        1.7377606010       -0.0062842816
 C          2.6539592320        1.8929426209       -1.3603434101
 C          1.5511972290        2.6182426128       -1.7823925595
 C          0.6904594877        3.1731030520       -0.8486218656
 C          0.9203295189        3.0064142426        0.5085424091
 C          2.0173352950        2.2773969766        0.9361991474
 H          2.2333737472        2.1339912268        1.9831429405
 H          0.2495914291        3.4404199790        1.2332790740
 H         -0.1643754025        3.7418624177       -1.1779930598
 H          1.3659742019        2.7480970865       -2.8364961897
 H          3.3527262420        1.4563266612       -2.0544028095
 H          3.2663496866       -0.7034806689        1.9405505762
 H          3.9383757451       -1.0927432114       -1.5980429607
 H          2.3005749546       -2.1218291566       -3.1501354889
 H          0.1263729741       -2.9079031463       -2.3161001413
 H         -0.6193442090       -3.1589946615        1.3004181377
 C         -1.5305967782       -3.8275125093       -0.5100054042
 C         -1.0150710144       -5.2338306871       -0.4822973764
 C         -2.2986480066       -4.8920681549        0.2114781039
 H         -3.2265611965       -5.2385890071       -0.2182312170
 H         -2.3039571735       -4.8622023109        1.2916668153
 H         -1.0602995953       -5.8187595983       -1.3880647065
 H         -0.1470975040       -5.4347038556        0.1277248639
 H         -1.9508760287       -3.4580747746       -1.4361888447
