  62
        -98.93414146
 C         -1.8253618852       -1.2607252231        0.2398255310
 C         -2.0499519505       -0.1290882125       -0.5812912790
 C         -3.4472312087        0.0911610555       -0.9911905107
 C         -4.3982976226       -0.7780647723       -0.6054880875
 C         -5.8621519555       -0.6410609216       -0.9067561063
 C         -6.5874727469        0.1276901778        0.2066230145
 C         -5.9003715652        1.4344526727        0.6032209263
 H         -4.9342152348        1.2063343189        1.0592648753
 H         -6.5159100579        1.9052856585        1.3727960209
 C         -5.6906997087        2.4184052941       -0.5561996320
 H         -5.9767325109        3.4183886212       -0.2233942913
 H         -6.3441117809        2.1552192353       -1.3887685351
 C         -4.2475961428        2.5119815398       -1.0559689621
 H         -3.5755659116        2.6835719814       -0.2109200194
 H         -4.1712341742        3.3813399793       -1.7147398667
 C         -3.7321924782        1.2982567223       -1.8398005198
 H         -2.7760953870        1.5776513317       -2.2927902229
 H         -4.4327629847        1.0522655855       -2.6405370601
 H         -6.6418083218       -0.5122338879        1.0902906518
 H         -7.6061219461        0.3363409814       -0.1251426488
 H         -5.9855485656       -0.1272036989       -1.8579868347
 H         -6.2921221588       -1.6409647270       -0.9852204722
 O         -4.1366071557       -1.8705162341        0.1570892888
 C         -2.8532789899       -2.1302503092        0.6065602387
 O         -2.7536798607       -3.1507748744        1.3180331290
 H          1.8739277170       -0.0777429728       -0.0411239438
 C          1.3484543613        0.2815610668        0.8222212715
 C          0.2106564275       -0.3491143305        1.2988229178
 C         -0.4359579707        0.2197815485        2.3988909993
 C          0.0214605764        1.3841802453        2.9799148972
 C          1.1517921326        2.0137681785        2.4891118386
 C          1.8146314677        1.4544101952        1.4050559349
 N          2.9913686673        2.0390763998        0.9262456977
 S          3.6489277728        1.7551667045       -0.5773653587
 O          4.6950677749        2.7516266928       -0.6838920845
 O          2.6696706883        1.7600519737       -1.6375419810
 C          4.3984354734        0.1453482314       -0.4368929942
 C          5.0048486999       -0.2150850721        0.7504891567
 C          5.6134938414       -1.4567178456        0.8406067187
 C          5.6127587713       -2.3098609985       -0.2526636438
 C          5.0044072726       -1.9314536532       -1.4390652254
 C          4.3913018987       -0.6921386937       -1.5346087217
 H          3.8945844034       -0.3645623274       -2.4339921097
 H          5.0003718007       -2.5954488863       -2.2881734358
 H          6.0864340157       -3.2759231353       -0.1787618858
 H          6.0849985904       -1.7553713190        1.7630297160
 H          4.9861031251        0.4704470213        1.5811589503
 H          3.2151646398        2.9524652292        1.2889572933
 H          1.5117198620        2.9284840973        2.9344194395
 H         -0.5064633653        1.8092029437        3.8205611512
 H         -1.3250146526       -0.2635537479        2.7825697367
 C         -0.4295316865       -1.6016413536        0.7525140277
 H         -0.6026574031       -2.2621121675        1.6192691232
 C          0.2611166074       -2.4807673039       -0.2798564623
 C          0.9860951677       -2.0074987723       -1.5010420791
 C          1.7398503224       -2.6918655660       -0.3969195111
 H          2.0889429208       -3.6975648782       -0.5777110283
 H          2.3968434023       -2.1136896625        0.2319000042
 H          1.0937252534       -0.9462738830       -1.6621629592
 H          0.8231198226       -2.5560830347       -2.4182521356
 H         -0.3488147207       -3.3708175885       -0.4243851042
 O         -1.1468032128        0.6634267110       -0.9509333707
