  62
        -98.94738640
 C          2.5400924489        0.2156995793       -0.0182750007
 C          2.2486394311        1.2317908404       -0.9582332375
 C          1.6984363484        2.4751099822       -0.4087499712
 C          1.5116328625        2.5916642107        0.9186881836
 C          0.9897561857        3.8068042199        1.6371825249
 C         -0.5415433733        3.9003558673        1.6653442056
 C         -1.1875023494        4.3005561955        0.3385766675
 H         -2.2250522356        4.5648698723        0.5518971051
 H         -0.6957858097        5.1919153507       -0.0531286331
 C         -1.1725241924        3.1914639055       -0.7218776987
 H         -0.9949511043        2.2256729724       -0.2424547894
 H         -2.1547474195        3.1216817670       -1.1966388472
 C         -0.1503142127        3.3828343321       -1.8426747609
 H         -0.4229009909        4.2542802353       -2.4434198575
 H         -0.1968951577        2.4992051466       -2.4853732993
 C          1.2985813988        3.5549974804       -1.3685472893
 H          1.9535209280        3.4816672046       -2.2407235053
 H          1.4298705326        4.5366606819       -0.9128293162
 H         -0.9419883222        2.9344639505        1.9833278914
 H         -0.8107347782        4.6438260189        2.4194060371
 H          1.3504803735        3.7354679017        2.6656013671
 H          1.4041648063        4.7078807972        1.1836135542
 O          1.8162833209        1.5958076760        1.7917944808
 C          2.2889858364        0.3724604000        1.3447223002
 O          2.4678769698       -0.4684857067        2.2476737232
 H          0.4245313200       -0.9448446826       -0.9453463062
 C          0.6592155988       -1.8679221503       -0.4347919358
 C          1.9842162451       -2.1702998590       -0.1470408292
 C          2.2672028552       -3.3726470581        0.4861285606
 C          1.2389318082       -4.2229592149        0.8573469491
 C         -0.0818363176       -3.8883325314        0.6234536477
 C         -0.3729061873       -2.6966240908       -0.0324985748
 N         -1.6997553361       -2.3176978366       -0.3054108264
 S         -2.0422896606       -0.6612862501       -0.3175720399
 O         -1.7185577059       -0.1410453554       -1.6219686832
 O         -1.4283046330       -0.0102849751        0.8179419880
 C         -3.8146552763       -0.7009747753       -0.1253109643
 C         -4.5888955853       -1.0186426406       -1.2256087647
 C         -5.9653643713       -1.0832703671       -1.0799723019
 C         -6.5419169177       -0.8296844931        0.1559992942
 C         -5.7526203386       -0.5084820460        1.2499425967
 C         -4.3746390379       -0.4445129905        1.1114328940
 H         -3.7202473426       -0.1930241763        1.9308971404
 H         -6.2031499174       -0.3078087490        2.2085932312
 H         -7.6135292292       -0.8799821517        0.2667521511
 H         -6.5822555844       -1.3296223512       -1.9289623037
 H         -4.0954420346       -1.1964991397       -2.1667807122
 H         -2.3758120144       -2.8375152931        0.2376485679
 H         -0.8814867096       -4.5379945388        0.9452694924
 H          1.4701328142       -5.1507024403        1.3586216392
 H          3.2886796606       -3.6354243047        0.7071993697
 C          3.0218567796       -1.1373583043       -0.5139545596
 H          3.0583970276       -1.0532655245       -1.6106858816
 C          4.4088314967       -1.4521432940        0.0023606627
 C          5.3121726938       -2.3620636086       -0.7740559843
 C          5.5960681933       -0.8919609661       -0.7198859755
 H          6.4375502396       -0.5477436029       -0.1377709251
 H          5.4032955311       -0.2985735277       -1.6018108217
 H          5.9639519934       -3.0285559681       -0.2298433993
 H          4.9333196294       -2.7704475521       -1.6987069558
 H          4.4502717694       -1.4855514996        1.0851924688
 O          2.4472726091        1.1069383998       -2.1984302964
