  62
        -98.94849017
 C         -1.2249403001       -1.5236159198        0.4957789512
 C         -2.1494390898       -1.2006420004       -0.5264775792
 C         -3.2046211299       -0.2471689601       -0.1566113400
 C         -3.2384700601        0.2512527507        1.0924490297
 C         -4.2332623001        1.2600175111        1.5876510188
 C         -3.7102809400        2.6930300710        1.4192655080
 C         -3.1593163597        2.9970267300        0.0256337979
 H         -2.8689978896        4.0505157200        0.0172048373
 H         -2.2413833097        2.4242358799       -0.1318861315
 C         -4.1434969895        2.7301747394       -1.1219262121
 H         -5.1624142695        2.6938146597       -0.7337150323
 H         -4.0923377293        3.5664520389       -1.8224987827
 C         -3.8603438694        1.4598011488       -1.9261404112
 H         -2.8062842493        1.4415255686       -2.2168270310
 H         -4.4535685192        1.4997153483       -2.8438459514
 C         -4.1900411296        0.1367060793       -1.2233800205
 H         -5.2044997797        0.1750520196       -0.8213929707
 H         -4.1448927395       -0.6587546912       -1.9730335899
 H         -4.5228716300        3.3851699012        1.6497068574
 H         -2.9064404501        2.8582241114        2.1406581480
 H         -5.1676228600        1.1374237508        1.0432161787
 H         -4.4133532204        1.0726289018        2.6478917889
 O         -2.3359489203       -0.0856011687        2.0486052301
 C         -1.2886812703       -0.9470412189        1.7631121608
 O         -0.4926944805       -1.1213129284        2.7096346211
 O         -2.0959673596       -1.6801610711       -1.6893369088
 C         -0.0580216501       -2.4445977000        0.1940518221
 C          0.8099972502       -1.8505350508       -0.8909217281
 C          1.4923194703       -2.6154034914       -1.8292048575
 C          2.2919877206       -2.0038942221       -2.7796060877
 C          2.4469032007       -0.6292834221       -2.8062494286
 C          1.7714512605        0.1435578185       -1.8689724692
 C          0.9645002703       -0.4725991708       -0.9273078090
 H          0.4239371102        0.1408450597       -0.2240999995
 N          1.8853201506        1.5417412885       -1.8498081001
 S          1.8533180304        2.3499610495       -0.3863742006
 O          0.5158858702        2.3779495199        0.1495173891
 O          2.4401457505        3.6399109792       -0.6821201113
 C          2.9551117101        1.4186408701        0.6634140702
 C          4.3020520301        1.4637105698        0.3556164705
 C          5.1913287499        0.7171091602        1.1095934011
 C          4.7208808297       -0.0659729691        2.1534356515
 C          3.3685329196       -0.0966608388        2.4534308613
 C          2.4735776098        0.6518430108        1.7039248606
 H          1.4168793298        0.6352907510        1.9221953604
 H          2.9908671094       -0.7022234482        3.2621360216
 H          5.4105979895       -0.6534887687        2.7385605321
 H          6.2444767200        0.7442035000        0.8810565613
 H          4.6293458504        2.0937189592       -0.4554673299
 H          2.5674130308        1.9279254281       -2.4851708302
 H          3.0720051309       -0.1570260527       -3.5482156888
 H          2.8090537607       -2.6086530526       -3.5089346272
 H          1.3906726603       -3.6883336814       -1.8216741468
 H          0.5429891697       -2.4859256695        1.1154776922
 C         -0.5473866801       -3.8413376802       -0.1308285171
 C          0.2712468998       -5.0389403400        0.2450410738
 C         -0.9903770504       -4.7296881795        0.9916152434
 H         -1.8521456504       -5.3621117895        0.8402517636
 H         -0.9099273506       -4.3356968388        1.9946279431
 H          0.2742385598       -5.8898285005       -0.4194707856
 H          1.2100248397       -4.8668649898        0.7495684139
 H         -1.1172094499       -3.8762582708       -1.0519770472
