  62
        -98.93714248
 C         -2.5379401576       -1.2597658674        0.2591504801
 C         -2.7278679412       -0.3265033071       -0.7859732549
 C         -3.8140619134        0.6566051571       -0.6061696515
 C         -4.5502325902        0.6425272472        0.5198951456
 C         -5.7286057836        1.4878102312        0.9562192642
 C         -6.0688106267        2.7903841890        0.2365546382
 C         -5.0328820289        3.9020335863        0.4001058020
 H         -5.3302463296        4.7411445347       -0.2326402410
 H         -5.0518797959        4.2447586618        1.4376663967
 C         -3.5930236586        3.5167074426        0.0697258677
 H         -3.2488767040        2.7493836351        0.7663726655
 H         -2.9665460265        4.3986250349        0.2285889086
 C         -3.3565964153        3.0313791962       -1.3592126002
 H         -2.2757376011        2.9481830497       -1.5034359334
 H         -3.7311963068        3.7735554630       -2.0669444668
 C         -3.9755673147        1.6662027164       -1.7064729891
 H         -5.0218768458        1.7647864393       -1.9848255950
 H         -3.4428652138        1.2656733351       -2.5738714384
 H         -7.0068190018        3.1480966707        0.6698233338
 H         -6.2616143969        2.6013611016       -0.8153702857
 H         -5.5640440330        1.6984369101        2.0176807984
 H         -6.6014439427        0.8274163660        0.9057486638
 O         -4.3291023619       -0.2758840328        1.5047448478
 C         -3.3399044854       -1.2331439344        1.4043688384
 O         -3.2735124741       -2.0000532016        2.3853713677
 O         -2.0405286688       -0.2916804007       -1.8433542561
 C         -1.4863624208       -2.3584381384        0.2320606334
 C         -0.1101689115       -1.8386394331        0.5754024088
 C          0.5802091086       -2.3295107677        1.6773920071
 C          1.8525911727       -1.8722577979        1.9724375693
 C          2.4600915584       -0.9151853127        1.1794945444
 C          1.7778623950       -0.4163099994        0.0776540149
 C          0.5051761097       -0.8824327222       -0.2197103692
 H         -0.0218768950       -0.4907961789       -1.0773079876
 N          2.3746659422        0.5743257371       -0.7230688790
 S          3.9176481778        0.2816359195       -1.3166917646
 O          4.0373346612        1.1121977270       -2.4950672808
 O          4.1563534718       -1.1315660899       -1.5001499796
 C          4.9937123087        0.9203296631       -0.0495576086
 C          4.8253324295        2.2320154556        0.3490475697
 C          5.6633509531        2.7474674190        1.3248069133
 C          6.6524013387        1.9486526265        1.8794820664
 C          6.8111027457        0.6349508223        1.4657411468
 C          5.9749530026        0.1126624988        0.4911126505
 H          6.0568145108       -0.9044701543        0.1424496911
 H          7.5808539014        0.0159438361        1.8977544931
 H          7.3033157182        2.3527374511        2.6386395885
 H          5.5427994862        3.7685381117        1.6493311745
 H          4.0473607202        2.8196388510       -0.1091300837
 H          1.7683363714        0.9045772892       -1.4607577713
 H          3.4502410180       -0.5544415484        1.4057874668
 H          2.3768022672       -2.2634527698        2.8309611248
 H          0.1081372057       -3.0682974093        2.3087216493
 H         -1.7817459057       -3.0629596373        1.0210258915
 C         -1.4531200020       -3.1086075942       -1.0867065422
 C         -0.8962028304       -4.4985059552       -1.1182966141
 C         -2.3685000093       -4.2761716141       -1.2903966136
 H         -2.8048580106       -4.4242576773       -2.2668106589
 H         -3.0236150644       -4.5449506548       -0.4742415921
 H         -0.3158722065       -4.8006497081       -1.9767115571
 H         -0.5535257457       -4.9215507934       -0.1861202025
 H         -1.2640289614       -2.4711244699       -1.9404055908
