  62
        -98.93606156
 C         -1.7052165820       -1.1190711441        0.4420250210
 C         -2.6615836127       -0.9669537969       -0.5909076831
 C         -3.9493695859       -0.3782779371       -0.1902826992
 C         -4.1493482313       -0.0055564204        1.0859595224
 C         -5.4151184853        0.5605102476        1.6732608077
 C         -5.8509258262        1.9429707208        1.1503674986
 C         -6.8507713517        1.8934244715       -0.0115912845
 H         -7.3862260081        0.9439596709        0.0260184722
 H         -7.5955242212        2.6788105085        0.1328651403
 C         -6.2587000189        2.0916117842       -1.4103019774
 H         -6.0606445101        3.1545714343       -1.5664491226
 H         -7.0137162398        1.7881341141       -2.1387624479
 C         -4.9606397451        1.3373282361       -1.6994015406
 H         -4.1263001049        1.8358402250       -1.1996676106
 H         -4.7593583111        1.4030768456       -2.7704763423
 C         -4.9666795935       -0.1421368376       -1.2683558061
 H         -5.9583987778       -0.4414638857       -0.9327456193
 H         -4.6810007533       -0.7749608959       -2.1108519275
 H         -4.9701095554        2.5210020259        0.8714096905
 H         -6.3255020074        2.4610095477        1.9853534456
 H         -5.2317138800        0.6283496237        2.7476060785
 H         -6.2245193835       -0.1564117922        1.5178485800
 O         -3.1897894006       -0.1409668194        2.0426781233
 C         -1.9497624134       -0.6743602247        1.7430881902
 O         -1.1580406403       -0.7042059092        2.7083818059
 O         -2.4710808645       -1.3109701743       -1.7852642957
 C         -0.3258280518       -1.7007767720        0.1741827874
 C          0.4884252601       -0.6696119595       -0.5679385237
 C          0.6668519861       -0.6822645443       -1.9450115390
 C          1.4153566336        0.3056912189       -2.5622393797
 C          2.0117308810        1.3110720717       -1.8225626418
 C          1.8380553435        1.3302431468       -0.4448404057
 C          1.0777536175        0.3488750607        0.1709077794
 H          0.9327197853        0.3690442071        1.2438897620
 N          2.5018221370        2.3175122517        0.3206269410
 S          4.1764561374        2.1697102708        0.2714647099
 O          4.6646637414        2.7843597033        1.4854472819
 O          4.6612475549        2.7314501989       -0.9633973284
 C          4.4461853007        0.4061709213        0.2909811064
 C          4.2776472136       -0.2658358936        1.4852154024
 C          4.3658633518       -1.6483130353        1.4951066881
 C          4.6076690230       -2.3318924623        0.3132232693
 C          4.7777551541       -1.6423021339       -0.8771701617
 C          4.6953019556       -0.2593925384       -0.8922371167
 H          4.8193150594        0.3142999921       -1.7956479750
 H          4.9652244822       -2.1775183125       -1.7937868699
 H          4.6647540037       -3.4092406772        0.3215328068
 H          4.2349098632       -2.1866449353        2.4203404591
 H          4.0890947964        0.2994247658        2.3843339769
 H          2.1976033379        2.3301134108        1.2845372364
 H          2.6183149297        2.0738794267       -2.2837123530
 H          1.5411559843        0.2885983429       -3.6339827489
 H          0.2033417657       -1.4564578037       -2.5331628537
 H          0.1344378843       -1.8343090299        1.1625652632
 C         -0.3724327632       -3.0448514787       -0.5201353250
 C          0.8815414761       -3.8637335474       -0.5752658885
 C         -0.2566085813       -4.2929100258        0.2997218100
 H         -0.8367548564       -5.1552512676        0.0071733313
 H         -0.1515079119       -4.1819653390        1.3692680540
 H          1.0866779498       -4.4342740529       -1.4676890804
 H          1.7603053094       -3.4519412545       -0.1015379953
 H         -1.0380330143       -3.0699051573       -1.3727792849
