  62
        -98.94433513
 C         -1.8701218194       -0.7579060705        0.0793096986
 C         -2.4036183697        0.5496614592        0.1754071914
 C         -3.8215259297        0.6329785182        0.5566258815
 C         -4.5064919995       -0.4982088225        0.8055832091
 C         -5.9654428395       -0.5597136835        1.1520733090
 C         -6.8289423394       -0.7138202509       -0.1076707214
 C         -6.4869845996        0.2822388515       -1.2157160093
 H         -5.4814456795        0.0715865825       -1.5871347697
 H         -7.1786965395        0.1008306732       -2.0412187197
 C         -6.5711910898        1.7554915206       -0.7926522061
 H         -7.1606111299        1.8459571285        0.1204777941
 H         -7.0935409999        2.3143430922       -1.5720596749
 C         -5.2159259400        2.4358733804       -0.5897801246
 H         -5.3847462801        3.5131892502       -0.5103409123
 H         -4.5863750499        2.2682775824       -1.4674796850
 C         -4.4309585399        2.0030330579        0.6550774945
 H         -3.5917915800        2.6945988477        0.7761938759
 H         -5.0693309499        2.0798779459        1.5376433846
 H         -6.6906997493       -1.7236322801       -0.5007930035
 H         -7.8768257795       -0.5999821117        0.1758076588
 H         -6.1287639894       -1.4218036949        1.8009508971
 H         -6.2447461096        0.3448704254        1.6886359509
 O         -3.9517993093       -1.7345835422        0.7239718265
 C         -2.6279194692       -1.8968589612        0.3504647262
 O         -2.2459934790       -3.0837934910        0.3057470236
 O         -1.7338385098        1.5928218098       -0.0429934564
 C         -0.4227343194       -0.9556103493       -0.3341725818
 C          0.4957213905       -0.2083531112        0.6015036598
 C          0.3007225405       -0.3326799842        1.9753906096
 C          1.1042270303        0.3469919241        2.8687901010
 C          2.1338087102        1.1523631752        2.4132725628
 C          2.3473690502        1.2720868082        1.0465346830
 C          1.5357257003        0.5883465799        0.1496505816
 H          1.7187722003        0.7139480522       -0.9040186982
 N          3.3840524301        2.0819001694        0.5545751048
 S          4.3597903002        1.5067108022       -0.6744818164
 O          5.5708106001        2.2917607522       -0.5741699247
 O          3.6704077502        1.5664960648       -1.9375212563
 C          4.6860484205       -0.1876580487       -0.2228501800
 C          5.4588015405       -0.4241980810        0.8974600395
 C          5.6771040107       -1.7320965018        1.2973271067
 C          5.1173088809       -2.7763505004        0.5766350145
 C          4.3485943309       -2.5222674581       -0.5482651750
 C          4.1279487707       -1.2154033773       -0.9537795922
 H          3.5367037906       -0.9752970855       -1.8220137417
 H          3.9172019910       -3.3361692770       -1.1091922168
 H          5.2827722711       -3.7946750910        0.8913437623
 H          6.2787275507       -1.9342657436        2.1687863963
 H          5.8870353403        0.4119272080        1.4260562813
 H          3.9305308000        2.5397871180        1.2692383458
 H          2.7581830301        1.6916689638        3.1091701939
 H          0.9308356403        0.2485429818        3.9297813808
 H         -0.5039603294       -0.9614971551        2.3320081882
 H         -0.2210784092       -2.0315697195       -0.2260007041
 C         -0.2474773094       -0.5711671262       -1.7887343109
 C          0.7443144807       -1.2914732542       -2.6495034225
 C         -0.7238590092       -1.5145175940       -2.8507384830
 H         -1.1955894593       -1.1047327422       -3.7313291521
 H         -1.1477230491       -2.4533748648       -2.5243365650
 H          1.2881572306       -0.7264556025       -3.3924538412
 H          1.3103251208       -2.0892232951       -2.1927889142
 H         -0.4006987796        0.4882910641       -1.9621067287
