  62
        -98.93498511
 C         -0.4900328518       -1.8629066302        0.2761065390
 C         -1.4478334012       -1.2772147396        1.1413477894
 C         -2.6898139608       -0.7977346783        0.5163938197
 C         -2.8220033712       -0.8828937878       -0.8195602303
 C         -3.9893846709       -0.3746267365       -1.6168939199
 C         -3.9060782595        1.1584352635       -1.7569868995
 C         -5.0369494987        1.9130081943       -1.0579463091
 H         -4.7678399277        2.9710613841       -1.0436864888
 H         -5.9485367189        1.8155368153       -1.6512784389
 C         -5.3579086188        1.4595132342        0.3695874409
 H         -5.9755941981        2.2391259146        0.8204679112
 H         -5.9713880997        0.5577913447        0.3394974607
 C         -4.1487123989        1.2021345228        1.2778892706
 H         -3.2794296585        1.7565473721        0.9282844306
 H         -4.3889681684        1.5733925627        2.2762292107
 C         -3.7636701502       -0.2802364176        1.4336912801
 H         -4.6568986308       -0.9040840467        1.3352119301
 H         -3.3667770502       -0.4331256982        2.4417132200
 H         -2.9431280291        1.4842506125       -1.3587973196
 H         -3.9184145395        1.4271826538       -2.8141383894
 H         -3.9435568915       -0.8500207862       -2.5968994701
 H         -4.9186724410       -0.6662449758       -1.1322102598
 O         -1.8510955518       -1.3849666784       -1.6242414006
 C         -0.6682806121       -1.8980785596       -1.1073832110
 O          0.1098949773       -2.3350401400       -1.9742422412
 O         -1.2738031008       -1.1666578401        2.3851025694
 C          0.7841288078       -2.4050516015        0.8974949986
 C          1.9864915281       -1.9483569123        0.1107867085
 C          2.8877611072       -2.8149178930       -0.4928098119
 C          3.9654759675       -2.3181459037       -1.2043060819
 C          4.1748264487       -0.9566223639       -1.3149323316
 C          3.2779433296       -0.0796424733       -0.7147218712
 C          2.1946525493       -0.5794972425       -0.0120747511
 H          1.4965573100        0.1049980380        0.4503460192
 N          3.4470724208        1.3079590166       -0.8289019908
 S          3.0468484119        2.3161439666        0.4392382796
 O          3.8012244530        3.5266830160        0.1883704698
 O          3.2730874116        1.6867585760        1.7192462594
 C          1.3204456622        2.6861952682        0.2181962300
 C          0.8639559923        2.9933066190       -1.0483108498
 C         -0.4569215274        3.3796560302       -1.2076632995
 C         -1.2911136371        3.4629564707       -0.1028630993
 C         -0.8210391872        3.1402885699        1.1607100305
 C          0.4975096425        2.7468067186        1.3247329202
 H          0.9009689824        2.4823852780        2.2895394700
 H         -1.4710058470        3.1953211802        2.0196424607
 H         -2.3131118669        3.7867873216       -0.2267849890
 H         -0.8307237574        3.6208953209       -2.1899728593
 H          1.5430807421        2.9279993386       -1.8820414700
 H          4.2904073410        1.6014348860       -1.2994918109
 H          5.0176197489       -0.5705016045       -1.8680060516
 H          4.6541638568       -3.0019621142       -1.6770685823
 H          2.7341111562       -3.8792973629       -0.4282561522
 H          0.8334440584       -1.9233118718        1.8891711087
 C          0.7622100565       -3.9059054715        1.1481467782
 C         -0.5268730141       -4.6299824105        1.3935705682
 C          0.2446783054       -4.8806214408        0.1345463980
 H          0.7541573546       -5.8271436212        0.0273259176
 H         -0.1352005144       -4.4816308002       -0.7927743118
 H         -0.5453619847       -5.4002367007        2.1500009080
 H         -1.4422160636       -4.0599501896        1.3287918185
 H          1.6113496963       -4.2273630325        1.7439195279
