  62
        -98.93949024
 C         -2.6379496597       -1.2105090275        0.2512134219
 C         -2.5311049057       -0.1656294905       -0.6999390491
 C         -3.7297595347        0.6735187041       -0.8652103998
 C         -4.8305495725        0.4122354686       -0.1388090795
 C         -6.0953680521        1.2190962279       -0.1721797905
 C         -6.0716312018        2.3301988653        0.8869396275
 C         -4.7893444485        3.1626564620        0.8813375919
 H         -3.9507886869        2.5293300222        1.1803833529
 H         -4.8991351056        3.9325509360        1.6481753374
 C         -4.4674386404        3.8251099007       -0.4655080756
 H         -4.1678935790        4.8593772541       -0.2835706544
 H         -5.3624982968        3.8520806064       -1.0881472626
 C         -3.3288080104        3.1623873335       -1.2432845539
 H         -2.4575028198        3.0475814148       -0.5933074136
 H         -3.0419289837        3.8300886617       -2.0599607422
 C         -3.6502028896        1.7958745635       -1.8613893612
 H         -2.8313333941        1.5379153511       -2.5393825604
 H         -4.5714856305        1.8618150109       -2.4437701184
 H         -6.1769882255        1.8708959571        1.8726267041
 H         -6.9316633018        2.9819180431        0.7225822460
 H         -6.2201424140        1.6497666345       -1.1637464076
 H         -6.9345158801        0.5520859117        0.0327698744
 O         -4.8969320592       -0.6016897255        0.7618787540
 C         -3.8023505887       -1.4167167930        0.9962515588
 O         -3.9860372021       -2.2759181988        1.8816321573
 H          0.8141335617       -2.1004284646       -0.9901238644
 C          0.8708861409       -1.4367029808       -0.1412692095
 C         -0.2056809150       -1.3294947955        0.7237568217
 C         -0.1116789218       -0.4445820191        1.7945892332
 C          1.0252198987        0.3162710055        1.9865056982
 C          2.0951654115        0.2119487838        1.1148176295
 C          2.0131318444       -0.6680444414        0.0453043479
 N          3.0891394369       -0.7655839782       -0.8518525597
 S          4.6363174878       -0.9658202163       -0.2405492807
 O          5.3797873771       -1.6182337521       -1.2966645657
 O          4.6158613946       -1.6376195263        1.0385248571
 C          5.2462366802        0.6959353401       -0.0481425898
 C          5.2212100329        1.5305659303       -1.1482294608
 C          5.7062829210        2.8221086354       -1.0193555025
 C          6.2081398712        3.2540266711        0.1994441425
 C          6.2284737498        2.4032274283        1.2938624014
 C          5.7439447815        1.1100839165        1.1716746170
 H          5.7357331087        0.4154216467        1.9965914762
 H          6.6187314974        2.7409782288        2.2405129238
 H          6.5853237635        4.2598478001        0.2967937484
 H          5.6914093510        3.4867841233       -1.8681592541
 H          4.8261741620        1.1567165891       -2.0781198049
 H          2.9184126156       -1.3809248568       -1.6335329713
 H          2.9844629267        0.8046410010        1.2550335619
 H          1.0797003459        1.0000768395        2.8202169784
 H         -0.9501258319       -0.3581790773        2.4732047145
 C         -1.4717494607       -2.1341991912        0.5613135012
 H         -1.7137898978       -2.5747816806        1.5427690073
 C         -1.3237024965       -3.2999669307       -0.4052525359
 C         -2.5264289537       -3.9191981407       -1.0505997672
 C         -1.5379081873       -3.1604449526       -1.8814658872
 H         -0.8952003310       -3.7193756326       -2.5466613629
 H         -1.8168091857       -2.1893243497       -2.2580770419
 H         -3.4871704232       -3.4659568103       -0.8540295311
 H         -2.5623619162       -4.9942567691       -1.1432544391
 H         -0.5431943849       -3.9862878455       -0.0887980173
 O         -1.5013078103        0.0665016217       -1.3832365370
