  62
        -98.94301787
 C         -2.3322523227       -0.8982165731        0.4325733396
 C         -2.5284258804        0.1611002575       -0.4864287098
 C         -3.5276928350        1.1669483853       -0.1003479229
 C         -4.1598999444        1.0738408497        1.0827034354
 C         -5.1777222999        2.0392226651        1.6261346800
 C         -6.6064422753        1.7880657047        1.1245814356
 C         -6.8593515063        2.1652433547       -0.3356363938
 H         -7.9400389033        2.1434856751       -0.4895356998
 H         -6.5268265223        3.1893090076       -0.5083087210
 C         -6.1972908825        1.2280516883       -1.3553718024
 H         -5.9161335605        0.2940369709       -0.8633990398
 H         -6.9166919799        0.9733513304       -2.1369336646
 C         -4.9656793262        1.8124403170       -2.0471659053
 H         -5.2589828402        2.6729108378       -2.6527983119
 H         -4.5565921897        1.0526211305       -2.7181032444
 C         -3.8500773438        2.2478534235       -1.0881204700
 H         -4.1349090996        3.1637691863       -0.5709791522
 H         -2.9495165823        2.4429992861       -1.6756429411
 H         -7.2796284272        2.3773990858        1.7513735456
 H         -6.8495167280        0.7337976708        1.2757945273
 H         -5.1684791792        1.9206398647        2.7117392584
 H         -4.8804149320        3.0602874074        1.3854985285
 O         -3.9185541186        0.0618774260        1.9566476174
 C         -3.0298312710       -0.9510922383        1.6451626036
 O         -2.9441348196       -1.8368042655        2.5189635056
 O         -1.9131245572        0.2911647868       -1.5797916619
 C         -1.3802496287       -2.0593986129        0.1876003601
 C          0.0533431734       -1.6860180895        0.4828553180
 C          0.7768535472       -2.3589432749        1.4603880767
 C          2.0967961909       -2.0281064463        1.7120915042
 C          2.7198354467       -1.0187722689        1.0000926785
 C          2.0051473886       -0.3391174217        0.0224534935
 C          0.6843153335       -0.6793329620       -0.2336852790
 H          0.1317476537       -0.1468759646       -0.9938391088
 N          2.6153045403        0.7078140913       -0.6893187262
 S          4.1239287259        0.4430591364       -1.3724545451
 O          4.2254425256        1.3990636959       -2.4534334045
 O          4.3128833694       -0.9455477555       -1.7239343560
 C          5.2627136140        0.9054248556       -0.0836944925
 C          5.1286532333        2.1564887253        0.4859158842
 C          6.0139062836        2.5363246057        1.4819719356
 C          7.0146981720        1.6653906031        1.8868048467
 C          7.1383602981        0.4142732915        1.3024471697
 C          6.2551338976        0.0276639545        0.3062818782
 H          6.3087324081       -0.9372655177       -0.1721919110
 H          7.9171983329       -0.2610242297        1.6183867759
 H          7.7020093357        1.9638613486        2.6626108502
 H          5.9205233406        3.5082961237        1.9391232314
 H          4.3392407030        2.8037394192        0.1415139187
 H          1.9952207008        1.1569327009       -1.3481141883
 H          3.7471283224       -0.7561042714        1.1934084920
 H          2.6465342935       -2.5596662979        2.4737844021
 H          0.2937627822       -3.1390572401        2.0306571430
 H         -1.6756043698       -2.8366846058        0.9049847804
 C         -1.5017579325       -2.6330745969       -1.2119466170
 C         -1.0716477648       -4.0461810741       -1.4587964128
 C         -2.5273217396       -3.6896320133       -1.4853202085
 H         -3.0408106476       -3.6759696049       -2.4350279952
 H         -3.1458442723       -4.0105012709       -0.6594423831
 H         -0.5804117952       -4.2790449700       -2.3912021360
 H         -0.7042923013       -4.6120118194       -0.6160460112
 H         -1.3168922858       -1.9071524063       -1.9928848286
