  62
        -98.94431634
 C         -1.1460258428       -1.2447187385        0.8386499958
 C         -2.3140405500       -1.3757287870        0.0488261246
 C         -3.2731254325       -0.2630677573        0.1359454138
 C         -2.9816318492        0.8084396033        0.8948617272
 C         -3.8484058514        2.0276301834        1.0217321022
 C         -3.5070078655        3.0854719175       -0.0373640482
 C         -3.3861293915        2.5299942123       -1.4557808118
 H         -3.1493564181        3.3684338016       -2.1146267053
 H         -2.5438844418        1.8354048691       -1.4968164978
 C         -4.6482714102        1.8230020212       -1.9682567570
 H         -4.8485125286        2.1554501928       -2.9890737471
 H         -5.5069734614        2.1105356878       -1.3602544411
 C         -4.5457543565        0.2977455698       -2.0068428693
 H         -5.3975116899       -0.0867358275       -2.5743366038
 H         -3.6381448270        0.0023778687       -2.5391173708
 C         -4.5521719183       -0.4007290601       -0.6416776240
 H         -5.4006530568       -0.0475426293       -0.0520087341
 H         -4.6797191631       -1.4725214593       -0.8194570485
 H         -4.2780369845        3.8578166156       -0.0125632803
 H         -2.5550237607        3.5466023240        0.2290995913
 H         -3.6936391923        2.4555265555        2.0135097691
 H         -4.8914196179        1.7305164267        0.9265053504
 O         -1.8355395284        0.9125293714        1.6158995783
 C         -0.9000562170       -0.1071260708        1.6135217040
 O          0.0922027659        0.1068110669        2.3377576530
 O         -2.5682644421       -2.3635947849       -0.6881211473
 C         -0.0493770368       -2.3008556967        0.8429524626
 C          0.7539107364       -2.1113423545       -0.4205414641
 C          0.4186192091       -2.7197818380       -1.6245163749
 C          1.1414749206       -2.4382658453       -2.7702673706
 C          2.2009548996       -1.5494190981       -2.7411783676
 C          2.5461645301       -0.9388830723       -1.5392702236
 C          1.8262581814       -1.2283202990       -0.3899933224
 H          2.0965007757       -0.7546308077        0.5423692526
 N          3.6167479503       -0.0429640839       -1.4853516171
 S          3.9719608898        0.9191570138       -0.1832917797
 O          4.9655641177        1.8397069837       -0.6974005686
 O          4.3943798816        0.1119045841        0.9349790772
 C          2.5047839305        1.8403478097        0.2419261642
 C          2.3517812346        2.2253380726        1.5576885950
 C          1.2617651028        3.0025211855        1.9101661329
 C          0.3453440032        3.3790261842        0.9429443546
 C          0.5070543148        2.9789127230       -0.3738889196
 C          1.5992852697        2.2058245808       -0.7332491494
 H          1.7418065527        1.8813884888       -1.7515915726
 H         -0.2158716962        3.2634194111       -1.1226001464
 H         -0.5038626307        3.9823066568        1.2239734836
 H          1.1251841314        3.2992726694        2.9374359372
 H          3.0772627097        1.8950110627        2.2838053486
 H          4.0008435250        0.2741161715       -2.3607953404
 H          2.7595110134       -1.3277860247       -3.6374438166
 H          0.8717548933       -2.9128923262       -3.7015846882
 H         -0.4258345341       -3.3878710331       -1.6650907238
 H          0.6029598562       -2.0528046694        1.6913696786
 C         -0.5680834537       -3.7100799925        1.0318301833
 C          0.4005145786       -4.7912548806        1.4024824256
 C         -0.5946320280       -4.2987258653        2.4088624318
 H         -1.4187529344       -4.9422517307        2.6782056945
 H         -0.2357998444       -3.6858695746        3.2233884471
 H          0.2623706656       -5.7751601899        0.9812595654
 H          1.4350578230       -4.5099605939        1.5334262359
 H         -1.3851485294       -3.9671404704        0.3713911371
