  62
        -98.93983976
 C         -0.5364115989       -1.8329944308        0.5358086905
 C         -1.2192976483       -1.7875710014       -0.7009606199
 C         -2.5527501187       -1.1591219923       -0.6862256907
 C         -3.0351325596       -0.6744112225        0.4710606690
 C         -4.3784027102       -0.0395634533        0.7068643982
 C         -4.2946461511        1.4919131067        0.6169292581
 C         -4.4409415707        2.0615157565       -0.7930635921
 H         -5.4783667305        1.9562959858       -1.1172707526
 H         -4.2221961514        3.1298269666       -0.7405048920
 C         -3.5321668697        1.4245509970       -1.8473390715
 H         -3.4351441697        2.1271497870       -2.6767945615
 H         -2.5335690998        1.2760323777       -1.4318714309
 C         -4.0824085285        0.0953803766       -2.3872354717
 H         -5.1168256286       -0.0191957141       -2.0634255423
 H         -4.1029740079        0.1290639565       -3.4785070817
 C         -3.2826278679       -1.1577006629       -2.0014305311
 H         -3.9462221473       -2.0286159333       -2.0337532714
 H         -2.5020727474       -1.3372670224       -2.7477611007
 H         -3.3326788516        1.7904133074        1.0364881086
 H         -5.0796306918        1.9228778362        1.2416146776
 H         -5.1134354995       -0.4375796639        0.0133378778
 H         -4.6725167406       -0.3118961735        1.7229188880
 O         -2.3119257403       -0.6782282419        1.6262657094
 C         -1.0555302799       -1.2514872111        1.6909715501
 O         -0.5118004406       -1.1821475506        2.8126458404
 H          1.3510056100        0.0375113404        0.3159583314
 C          1.9497093308       -0.5666092393       -0.3512090282
 C          1.7911295516       -1.9472322394       -0.3427363982
 C          2.5680175826       -2.7115583890       -1.2032838077
 C          3.4712334327       -2.1027594584       -2.0569604773
 C          3.6382737218       -0.7309233183       -2.0497920273
 C          2.8730427108        0.0430884712       -1.1840590778
 N          3.0193752799        1.4377109113       -1.1502988078
 S          2.9323942285        2.2587497814        0.3045621021
 O          3.7148725679        3.4576451919        0.0855290324
 O          3.3403125885        1.4286825818        1.4128693524
 C          1.2261316981        2.7375862103        0.4577798811
 C          0.6915481282        3.5374996399       -0.5335577393
 C         -0.6086662822        3.9942085590       -0.3980394001
 C         -1.3460835326        3.6525281486        0.7256148595
 C         -0.8007851926        2.8367400791        1.7049213499
 C          0.4984653978        2.3721842499        1.5718850207
 H          0.9515751778        1.7324738603        2.3142864710
 H         -1.3742702129        2.5556986088        2.5748953196
 H         -2.3505803329        4.0280883680        0.8418259590
 H         -1.0415643122        4.6200833287       -1.1614999804
 H          1.3048122585        3.7968189202       -1.3803383290
 H          3.7517323900        1.8011341218       -1.7427738274
 H          4.3517018019       -0.2576088679       -2.7072743169
 H          4.0617967035       -2.7069751781       -2.7288949669
 H          2.4634921533       -3.7838265590       -1.2115231177
 C          0.8025412215       -2.5400332300        0.6308996613
 H          1.1793407208       -2.3472112096        1.6468522915
 C          0.6014971626       -4.0323272801        0.4601397613
 C          1.5367997828       -5.0028330994        1.1144647019
 C          0.1414529224       -4.8388897103        1.6356498211
 H         -0.5696985470       -5.6341751008        1.4697389908
 H          0.0001174816       -4.3152836803        2.5702967210
 H          1.7827738237       -5.9154007293        0.5926741221
 H          2.3473758522       -4.5974726489        1.7013177523
 H          0.1927829933       -4.2876320505       -0.5109671789
 O         -0.7479293373       -2.2625024012       -1.7673832896
