  62
        -98.93897926
 C         -2.0989992904       -0.8846002467        0.3692110234
 C         -2.7334863917        0.0022698635        1.2752754124
 C         -3.1664967395        1.2941090636        0.7275037940
 C         -2.8821738111        1.5904918648       -0.5535473204
 C         -3.2939241757        2.8522971105       -1.2538339162
 C         -4.6551846751        2.6877503237       -1.9441565219
 C         -5.7348960678        2.0877479195       -1.0434227087
 H         -5.4625428713        1.0583360352       -0.7992539093
 H         -6.6575382059        2.0459120331       -1.6260625549
 C         -5.9840157211        2.8678751589        0.2550259483
 H         -7.0613672954        2.9644687912        0.4041644593
 H         -5.5774574128        3.8757401675        0.1647402368
 C         -5.4181037438        2.2046116145        1.5120379514
 H         -5.7483514832        1.1637508693        1.5572480205
 H         -5.8333203964        2.7175744149        2.3834479798
 C         -3.8907863112        2.2324664782        1.6516533502
 H         -3.6427970482        1.9036240475        2.6652289669
 H         -3.5276544505        3.2544064271        1.5237831469
 H         -4.5269002658        2.0333516454       -2.8095401341
 H         -4.9796406313        3.6660783975       -2.3031883156
 H         -3.3367216629        3.6644797174       -0.5304389234
 H         -2.5380728388        3.0876523281       -2.0053525856
 O         -2.2134564309        0.7436724383       -1.3760316695
 C         -1.8029207853       -0.5111163162       -0.9435609634
 O         -1.1993172955       -1.1686822762       -1.8115538828
 H          0.3786669137       -0.5783237545        1.3949377119
 C          0.7252349934       -1.4524157515        0.8543948748
 C         -0.1886155567       -2.4435772339        0.5163083286
 C          0.2696488196       -3.5491093814       -0.1864215887
 C          1.6013497189       -3.6445034633       -0.5539526671
 C          2.5012964759       -2.6453526090       -0.2331503559
 C          2.0530925653       -1.5388035296        0.4742847271
 N          2.9657055941       -0.4976574580        0.7842520218
 S          3.3491130221        0.5117245236       -0.5208882460
 O          2.4239564854        1.6275845062       -0.5536546925
 O          3.4579600144       -0.2820295146       -1.7165790874
 C          4.9635597698        1.0885426164       -0.0312194009
 C          5.1037718749        2.3368777932        0.5422304202
 C          6.3631129574        2.7512075374        0.9475489736
 C          7.4537216843        1.9124694658        0.7769532076
 C          7.2968000130        0.6608118739        0.2000753894
 C          6.0407029259        0.2417960910       -0.2073846593
 H          5.8718219691       -0.7176117029       -0.6674179038
 H          8.1473740140        0.0118158122        0.0675328548
 H          8.4323387447        2.2371828573        1.0934682704
 H          6.4875895437        3.7247802246        1.3937735725
 H          4.2292087802        2.9585658576        0.6476232002
 H          2.6002674870        0.1001553147        1.5153853165
 H          3.5321624704       -2.6965956573       -0.5416692608
 H          1.9390378210       -4.5056516617       -1.1104569686
 H         -0.4215765331       -4.3235603755       -0.4759530526
 C         -1.6280111377       -2.2242289558        0.9097023994
 H         -1.6646532740       -2.1007560676        2.0057003674
 C         -2.5386075082       -3.3963022838        0.5786834198
 C         -3.9963607938       -3.1852014600        0.3017772955
 C         -3.0813705621       -3.6272287030       -0.7985863976
 H         -3.1626501517       -4.6446667249       -1.1524230807
 H         -2.8129983297       -2.9183886876       -1.5659849550
 H         -4.3596174983       -2.1677102405        0.2857221658
 H         -4.7036597261       -3.8953711227        0.7029911331
 H         -2.2850586737       -4.2803385151        1.1555585524
 O         -2.9180671455       -0.2715216326        2.4919544239
