  62
        -98.94506657
 C          2.3645687393        0.3366320180        0.0715709638
 C          1.4916121321       -0.2652016634       -0.8600943709
 C          1.3990054062       -1.7371424544       -0.8417772359
 C          2.1474594227       -2.4205367084        0.0436825148
 C          2.2329194314       -3.9101347610        0.2561723976
 C          1.0211933618       -4.4851904008        1.0014117904
 C         -0.3327997673       -4.0248073880        0.4693275966
 H         -1.1045756210       -4.4626815922        1.1092342995
 H         -0.4133545830       -2.9416785607        0.5793732427
 C         -0.6352821263       -4.4296100759       -0.9722595570
 H         -1.6791916156       -4.1676340446       -1.1635829496
 H         -0.5418007702       -5.5140664434       -1.0662249784
 C          0.2216505507       -3.7649191166       -2.0540571746
 H          1.1856207064       -4.2563461911       -2.1583995433
 H         -0.2990799384       -3.8966735061       -3.0067784262
 C          0.4190665035       -2.2656440240       -1.8607149215
 H          0.7237509786       -1.8213248148       -2.8155175342
 H         -0.5474915670       -1.8074241254       -1.6195171847
 H          1.0810098337       -5.5750396020        0.9620447848
 H          1.0873643370       -4.1797549148        2.0488840348
 H          3.1263132096       -4.0852351833        0.8605227178
 H          2.3715897524       -4.4174236325       -0.6942367650
 O          2.9781200910       -1.7946114647        0.9289539514
 C          3.0892471736       -0.4201755840        0.9880562354
 O          3.8579605943        0.0032487599        1.8777857672
 O          0.8094018523        0.3997419259       -1.6855316603
 C          2.4783950904        1.8491649108        0.1307970938
 C          1.1045761026        2.4604245508        0.2660547787
 C          0.7074539166        3.6085415805       -0.4084257921
 C         -0.5795375709        4.0979852918       -0.2640260866
 C         -1.5028415305        3.4416399496        0.5293178033
 C         -1.1108323485        2.2991048004        1.2170086060
 C          0.1918184139        1.8416534716        1.1104892345
 H          0.4819127073        0.9559940647        1.6570728140
 N         -2.0149512804        1.5702463143        2.0184960988
 S         -2.3549196657       -0.0010375914        1.5378599753
 O         -3.3130114944       -0.4896552421        2.5068955610
 O         -1.1351660921       -0.7534291803        1.4098880841
 C         -3.1646285165        0.1837613280       -0.0415826200
 C         -2.4114670610        0.4688786433       -1.1630252216
 C         -3.0666368516        0.6726454218       -2.3687290021
 C         -4.4489623255        0.5941259246       -2.4325059557
 C         -5.1899871644        0.3091250169       -1.2951568283
 C         -4.5439506324        0.1063609447       -0.0868631836
 H         -5.0757273137       -0.1209722949        0.8230433588
 H         -6.2650780630        0.2461435647       -1.3458577114
 H         -4.9503207360        0.7547909385       -3.3739424578
 H         -2.4822310074        0.8927414319       -3.2477009293
 H         -1.3350339554        0.5228328883       -1.0983591139
 H         -2.8855632831        2.0545420226        2.1919587623
 H         -2.5161817720        3.8041533063        0.6160621744
 H         -0.8735889742        4.9904225966       -0.7950027776
 H          1.4045102431        4.1164689559       -1.0547906010
 H          3.0538104514        2.0774552073        1.0404455887
 C          3.2430444802        2.3607696173       -1.0737777582
 C          4.0969401432        3.5876833472       -0.9676864177
 C          4.7360560925        2.2375776192       -1.0856472375
 H          5.2251543062        1.9744450684       -2.0114948251
 H          5.2019553246        1.8094787580       -0.2096764574
 H          4.1522993976        4.2529134187       -1.8162234464
 H          4.1421187897        4.0853687542       -0.0107659236
 H          2.7184844960        2.1778873747       -2.0047010694
