  62
        -98.94416859
 C          2.2463456163        0.8666552407        0.4156554596
 C          2.4435764199        0.0171499287       -0.7001889793
 C          3.2958737799       -1.1549899340       -0.4620433425
 C          3.7937513745       -1.3835285331        0.7667611339
 C          4.6581710722       -2.5473584957        1.1700817245
 C          6.1502725403       -2.3505272629        0.8686569154
 C          6.5323046384       -2.4344629387       -0.6096848539
 H          7.6213005624       -2.4980798572       -0.6552291061
 H          6.1344612043       -3.3565387851       -1.0345554856
 C          6.0723046345       -1.2362723102       -1.4518902033
 H          6.8947566943       -0.9014942769       -2.0879392452
 H          5.8188472116       -0.4031648642       -0.7922087784
 C          4.8809273608       -1.5236103870       -2.3657205709
 H          5.1655492663       -2.2631564756       -3.1173348444
 H          4.6169072985       -0.5991924905       -2.8853966172
 C          3.6306921858       -2.0282156089       -1.6333628003
 H          2.7868573048       -1.9890879967       -2.3265526440
 H          3.7732167269       -3.0597884493       -1.3120922639
 H          6.4634973330       -1.3848043941        1.2721077184
 H          6.6959895912       -3.1283210229        1.4078084230
 H          4.5376918706       -2.6647169603        2.2493374026
 H          4.3033924392       -3.4548010882        0.6804696871
 O          3.5395576438       -0.5663932408        1.8249160410
 C          2.7779444826        0.5817958467        1.6722197026
 O          2.6371634396        1.2483770800        2.7191964619
 H         -0.0989917217        0.1200094792        1.1749424836
 C         -0.6309016886        0.6944619721        0.4251067806
 C          0.0050961877        1.7752084417       -0.1732844539
 C         -0.6971088421        2.5132423078       -1.1171370348
 C         -1.9905451789        2.1609765935       -1.4624117047
 C         -2.6109427610        1.0722026883       -0.8787169701
 C         -1.9229323839        0.3341076176        0.0756407460
 N         -2.5419617719       -0.7819348665        0.6686928850
 S         -4.0461681391       -0.5525832526        1.3813762429
 O         -4.1956829863        0.7965595567        1.8767182901
 O         -4.1674425978       -1.6127235199        2.3585737831
 C         -5.1986188670       -0.8480930631        0.0570182006
 C         -6.1488450302        0.1048961789       -0.2535387617
 C         -7.0422273139       -0.1507413097       -1.2823339762
 C         -6.9699217625       -1.3480273452       -1.9776673237
 C         -6.0110410765       -2.2957425822       -1.6513738106
 C         -5.1160806906       -2.0474343332       -0.6230027750
 H         -4.3579763317       -2.7573077073       -0.3367472017
 H         -5.9574395487       -3.2254283282       -2.1946598759
 H         -7.6647117022       -1.5440959867       -2.7789872722
 H         -7.7885656124        0.5843220578       -1.5372786995
 H         -6.1616628912        1.0240017373        0.3101387687
 H         -1.9349753742       -1.2945998975        1.2920524712
 H         -3.6145820472        0.7898787987       -1.1515122822
 H         -2.5215486200        2.7409843694       -2.2015742854
 H         -0.2304143312        3.3643112649       -1.5851392141
 C          1.4074184342        2.1219216582        0.2678211071
 H          1.3425428745        2.5655450891        1.2730396583
 C          2.1026921041        3.1031339437       -0.6540584560
 C          1.9422194233        4.5790557290       -0.4524560065
 C          3.2418004354        3.9136251689       -0.1154784431
 H          4.0956444224        4.0918214452       -0.7517782620
 H          3.4949811063        3.7793405467        0.9266128998
 H          1.3165291823        4.9079977424        0.3636361016
 H          1.9071192137        5.2179317636       -1.3220264865
 H          2.1898382555        2.7285769330       -1.6674146133
 O          1.9341252459        0.2215638466       -1.8315271781
