  62
        -98.94486810
 C         -2.6486643695       -0.3129636296       -0.0142933243
 C         -2.4414882037       -1.4229682820       -0.8661982389
 C         -1.7724125731       -2.5784352083       -0.2612075907
 C         -1.4038856904       -2.5327474310        1.0322716293
 C         -0.6655759534       -3.6103628446        1.7781011998
 C          0.8544659616       -3.5512196544        1.5667776052
 C          1.3396778880       -4.0588096774        0.2074189088
 H          2.4190248947       -4.2037497949        0.2876070964
 H          0.8939364792       -5.0328556663        0.0012665171
 C          1.0561355514       -3.0997515002       -0.9575454470
 H          0.8517312051       -2.1034196531       -0.5561482507
 H          1.9464906609       -3.0186350603       -1.5869020295
 C         -0.0952198999       -3.5267762368       -1.8688946609
 H          0.1711367900       -4.4531099333       -2.3832696530
 H         -0.2394712359       -2.7511477973       -2.6257868269
 C         -1.4334987263       -3.7380568983       -1.1497871364
 H         -2.2184860328       -3.8161143385       -1.9063792245
 H         -1.4096016064       -4.6622391518       -0.5732655814
 H          1.1809318961       -2.5166896311        1.7052076429
 H          1.3182962629       -4.1585401882        2.3477538233
 H         -0.8737202300       -3.4543996795        2.8386830088
 H         -1.0423530001       -4.5918792756        1.4883054786
 O         -1.6729025974       -1.4693718159        1.8341074910
 C         -2.2463869881       -0.3170591850        1.3226075377
 O         -2.3646998407        0.6092804899        2.1484875295
 H         -0.6396942765        0.6305178765       -1.2828169615
 C         -0.7876064854        1.6159444082       -0.8564568816
 C         -2.0670277718        2.0079589745       -0.4811302348
 C         -2.2321092911        3.2774409108        0.0551389640
 C         -1.1381480735        4.1044450193        0.2536392299
 C          0.1403639333        3.6826135146       -0.0641275303
 C          0.3081525913        2.4283388856       -0.6317682729
 N          1.6246350297        1.9447626240       -0.8931256158
 S          2.1902417049        1.1509386598        0.4995724560
 O          1.4337744563       -0.0610690738        0.7293723962
 O          2.2133126373        2.1121883778        1.5722949135
 C          3.8575812403        0.7460606499        0.0136149057
 C          4.7699220900        1.7771341431       -0.1034040743
 C          6.0608970373        1.4847123882       -0.5123853525
 C          6.4153385272        0.1739433737       -0.7968054850
 C          5.4885354160       -0.8497278925       -0.6735697958
 C          4.1944662819       -0.5636139274       -0.2663447007
 H          3.4411053459       -1.3269694240       -0.1530772858
 H          5.7666032149       -1.8680519057       -0.8928493635
 H          7.4209465942       -0.0515316027       -1.1149188377
 H          6.7849612022        2.2775537057       -0.6084509767
 H          4.4491664846        2.7773922986        0.1349020921
 H          1.6038771159        1.2484472589       -1.6299483426
 H          1.0044307793        4.2938606642        0.1375633598
 H         -1.2828615220        5.0820218295        0.6879908262
 H         -3.2154043805        3.6106568695        0.3452173400
 C         -3.1697704521        0.9845530106       -0.6108127117
 H         -3.3351807598        0.7743347424       -1.6780142616
 C         -4.4786763451        1.4090303651        0.0157270362
 C         -5.4367320694        2.2668491837       -0.7546551396
 C         -5.7556459351        0.8241931484       -0.5063795076
 H         -6.5355332495        0.5797612220        0.1988538723
 H         -5.6820665129        0.1326233704       -1.3328992001
 H         -6.0024862216        3.0147561079       -0.2201588972
 H         -5.1532657375        2.5578466566       -1.7547429478
 H         -4.3964994701        1.5607791054        1.0859861978
 O         -2.7780482631       -1.4365215960       -2.0824033047
