  62
        -98.94310442
 C         -1.4735913275       -1.1104828626       -0.0319423238
 C         -2.5026529793       -0.6420413942        0.8145174791
 C         -2.9994488696        0.7177428246        0.5501147245
 C         -2.4485383721        1.4392574900       -0.4414397190
 C         -2.7475531731        2.8609818049       -0.8478972437
 C         -4.2169695098        3.3012785595       -0.8793384119
 C         -5.2113740901        2.2067469608       -1.2936304099
 H         -4.6724507036        1.3442575565       -1.6891928722
 H         -5.8477769785        2.5900248498       -2.0932536634
 C         -6.1181477004        1.7583750952       -0.1453061617
 H         -7.0063609574        1.2802148009       -0.5649946337
 H         -6.4505991590        2.6418439965        0.4039268156
 C         -5.4915758626        0.7674601350        0.8347366244
 H         -5.3578100950       -0.2018676575        0.3470203499
 H         -6.1943741513        0.6178951433        1.6578822536
 C         -4.1318718379        1.1841218028        1.4197095916
 H         -4.0053050774        0.6708720263        2.3772019176
 H         -4.0878938716        2.2562890304        1.5965519712
 H         -4.2795789846        4.1357663316       -1.5799337922
 H         -4.5016457651        3.6906852327        0.0970868906
 H         -2.1843194235        3.5216634313       -0.1813876914
 H         -2.3120865485        2.9680079604       -1.8445654929
 O         -1.4567798603        0.9476629014       -1.2349961547
 C         -0.9348759174       -0.3180643274       -1.0429387373
 O         -0.0166178147       -0.6220405979       -1.8299922643
 H          0.4091991955       -0.5975529929        1.5889126197
 C          1.0958990219       -1.3166688640        1.1661648261
 C          0.6105354462       -2.3783265293        0.4130939662
 C          1.5215050470       -3.2902775996       -0.1058910853
 C          2.8800301159       -3.1233579673        0.1020422679
 C          3.3600474704       -2.0357953847        0.8084308819
 C          2.4558340272       -1.1241236308        1.3401181523
 N          2.8870294788        0.0199738931        2.0467407232
 S          2.5600727264        1.5001735185        1.3267371542
 O          3.1643117111        2.4836959900        2.2008111191
 O          1.1451380026        1.6358897848        1.0970902533
 C          3.4673068045        1.4423118403       -0.2084938998
 C          2.9358470290        0.7681780990       -1.2894595694
 C          3.6954755652        0.6647251319       -2.4456027364
 C          4.9605120760        1.2282938018       -2.5009492406
 C          5.4786720005        1.9022431954       -1.4049085729
 C          4.7289340087        2.0061415784       -0.2450649518
 H          5.0869385952        2.5226194748        0.6310444641
 H          6.4616647306        2.3427197887       -1.4499059338
 H          5.5441040836        1.1422070533       -3.4039531043
 H          3.2839478098        0.1392587780       -3.2924584479
 H          1.9461611220        0.3410650229       -1.2322365615
 H          3.8657194666       -0.0081946978        2.3008726262
 H          4.4206833491       -1.8891637874        0.9469715205
 H          3.5747820437       -3.8396503109       -0.3089629531
 H          1.1671936906       -4.1303750240       -0.6805836445
 C         -0.8802551887       -2.4864943935        0.2049981592
 H         -1.3371507111       -2.8478763112        1.1389341612
 C         -1.2611804165       -3.4274054116       -0.9201717822
 C         -1.4476909243       -4.8914180208       -0.6575983066
 C         -2.6367662139       -4.0214934838       -0.9295432611
 H         -3.1489726747       -4.1232565929       -1.8745378843
 H         -3.2881089970       -3.7694124362       -0.1053041808
 H         -1.2991015674       -5.2416162894        0.3526425767
 H         -1.1457788111       -5.5943709514       -1.4193377803
 H         -0.8398108332       -3.1248774001       -1.8725694346
 O         -2.9758966661       -1.3252987968        1.7641098542
