  62
        -98.94452801
 C         -1.2795528004       -1.7676999831       -0.6779728994
 C         -2.4707959212       -1.6453342981        0.0838066974
 C         -3.4037170407       -0.5921273345       -0.3246747164
 C         -3.1230652502        0.1612806707       -1.4027748253
 C         -3.9525249171        1.2995496855       -1.9299954749
 C         -3.6611069503        2.6310326340       -1.2234536162
 C         -4.2213270849        2.7459837629        0.1950063164
 H         -5.2779601476        2.4744926240        0.1931221685
 H         -4.1532960363        3.7976968259        0.4805528947
 C         -3.4713967545        1.9060734333        1.2388781324
 H         -3.2917302128        2.5122252850        2.1304522221
 H         -2.4884422268        1.6317301199        0.8457049213
 C         -4.2100480131        0.6453900495        1.6918047295
 H         -5.1223174098        0.9289221203        2.2220679071
 H         -3.5653015840        0.1070587702        2.3915795435
 C         -4.5835710900       -0.3178740077        0.5572451249
 H         -5.4108696610        0.0870424630       -0.0249875671
 H         -4.8959653208       -1.2659606642        1.0021027209
 H         -4.0955795962        3.4286805060       -1.8310646449
 H         -2.5783821978        2.7824429504       -1.1952568645
 H         -5.0127771980        1.0604140674       -1.8435415452
 H         -3.7025785495        1.4075386051       -2.9876642695
 O         -2.0157797772       -0.0400432984       -2.1584803581
 C         -1.0295559549       -0.9466559583       -1.7782110105
 O         -0.0276833957       -0.9177963650       -2.5166678163
 O         -2.7309924515       -2.3817959865        1.0737036617
 C         -0.2409585013       -2.7258003931       -0.1203551768
 C          0.4664543620       -2.0609300406        1.0382445881
 C          0.8326386212       -2.7683288905        2.1770474217
 C          1.4523787032       -2.1211773053        3.2323036301
 C          1.7021155273       -0.7615434614        3.1825937245
 C          1.3230215167       -0.0406170176        2.0541400632
 C          0.7327888718       -0.7010422387        0.9879616832
 H          0.4325245066       -0.1341933968        0.1228624254
 N          1.4937121441        1.3441188163        1.9982970425
 S          1.4767485953        2.2461294651        0.5974281734
 O          1.8178594534        3.5778399712        1.0517672336
 O          0.2128791352        2.1158401338       -0.0821080344
 C          2.8294262134        1.6112058291       -0.3755188830
 C          2.6168266648        0.8428504802       -1.5007208485
 C          3.7176772810        0.3667677860       -2.1987411060
 C          4.9996627789        0.6584133167       -1.7630701569
 C          5.1961836900        1.4342189261       -0.6297155722
 C          4.1032007005        1.9152268934        0.0699176248
 H          4.2112232858        2.5378889472        0.9430745868
 H          6.1940910699        1.6642061068       -0.2927498371
 H          5.8488134093        0.2813009230       -2.3108096570
 H          3.5543457512       -0.2343249806       -3.0787532707
 H          1.6143899847        0.6104937273       -1.8264119164
 H          2.0243702852        1.7654599589        2.7436643865
 H          2.1638421560       -0.2553884265        4.0161410475
 H          1.7328923201       -2.6800211814        4.1121484876
 H          0.6053974187       -3.8218372899        2.2456666592
 H         -0.8132596456       -3.5728267514        0.2923004466
 C          0.7213271232       -3.2815799216       -1.1572937048
 C          2.1327200867       -2.8032484008       -1.2925514584
 C          1.8581090512       -4.1706018319       -0.7472744521
 H          2.0848459640       -5.0274984782       -1.3632370590
 H          2.0196457681       -4.3281116407        0.3076276045
 H          2.5341060046       -2.7077955917       -2.2890161938
 H          2.4749707262       -2.0376304070       -0.6127717890
 H          0.2122882755       -3.5387587333       -2.0799463592
