  62
        -98.94523893
 C         -1.6002424034       -0.2361018360       -0.6104176082
 C         -2.8725606233       -0.7801597586       -0.9170551303
 C         -3.9161548909       -0.6030306651        0.1004437206
 C         -3.6068401258        0.0104707090        1.2572394775
 C         -4.5797592663        0.2940456591        2.3641839744
 C         -5.2290512704        1.6746696497        2.1937321208
 C         -5.7824999723        1.9280785910        0.7914253971
 H         -6.2430425842        2.9183046014        0.7980959725
 H         -4.9524389700        1.9640356385        0.0823396808
 C         -6.8088397199        0.8900079080        0.3167223326
 H         -7.6501252707        1.4138623122       -0.1419076390
 H         -7.1992805815        0.3371351839        1.1718765234
 C         -6.2775918618       -0.0965734884       -0.7248235672
 H         -7.1292973272       -0.6365921720       -1.1468625131
 H         -5.8019135860        0.4533047392       -1.5406710710
 C         -5.2843226734       -1.1442680330       -0.2064814874
 H         -5.7036820403       -1.6490537294        0.6663080377
 H         -5.1418653460       -1.8869385727       -0.9969513378
 H         -4.4782907466        2.4384697263        2.4092514654
 H         -6.0316445173        1.7710134010        2.9272151860
 H         -5.3446207490       -0.4801268217        2.3758401631
 H         -4.0379933491        0.2707546645        3.3114060522
 O         -2.3677004980        0.4897874162        1.5316464287
 C         -1.3347887500        0.3888935668        0.6087470797
 O         -0.2648335796        0.8967968477        0.9921003853
 H          2.0637898867       -0.0910037253       -0.6443147285
 C          1.7355644179       -1.1144776388       -0.6331176867
 C          0.4780201438       -1.4434231810       -1.1116814643
 C          0.0808779686       -2.7786302251       -1.0865853156
 C          0.9251747390       -3.7550922200       -0.5956144023
 C          2.1760081082       -3.4190628720       -0.1052026238
 C          2.5788316454       -2.0902304568       -0.1182695071
 N          3.8480501444       -1.7105331265        0.3534845621
 S          3.9401643168       -0.4655297745        1.4828379958
 O          5.2428780354       -0.6434843370        2.0931086855
 O          2.8142037804       -0.4922393842        2.3859949129
 C          3.9691966982        1.0241096774        0.5102804843
 C          2.9254990868        1.9251631195        0.5865100509
 C          2.9810397012        3.0719497594       -0.1914645968
 C          4.0683432238        3.2958999585       -1.0220695134
 C          5.1091789008        2.3810833830       -1.0820120294
 C          5.0624325784        1.2332820191       -0.3077719999
 H          5.8510627065        0.4995614027       -0.3174124733
 H          5.9524338898        2.5586904705       -1.7297727936
 H          4.1018532515        4.1886163471       -1.6268661081
 H          2.1676879555        3.7792358280       -0.1471882066
 H          2.0794548217        1.7029529237        1.2193156591
 H          4.4239237726       -2.4865600200        0.6496514886
 H          2.8343513294       -4.1800334914        0.2868608470
 H          0.6071050912       -4.7869364986       -0.5869867374
 H         -0.9019130655       -3.0370135563       -1.4559885504
 C         -0.4865874099       -0.4054369525       -1.6319405905
 H         -0.9760519568       -0.8211776514       -2.5240772500
 C          0.1676574668        0.9095386263       -1.9970878193
 C          1.0486455331        0.9838329672       -3.2072915045
 C         -0.2928667465        1.6513078346       -3.2143165957
 H         -0.3342887224        2.7292891472       -3.1742105329
 H         -1.0819539927        1.2064422514       -3.8029325328
 H          1.9326745658        1.6014374374       -3.1611592389
 H          1.1693000980        0.0831945703       -3.7898738375
 H          0.4464005265        1.5009327966       -1.1340088425
 O         -3.1232520617       -1.3858814815       -1.9936334665
