  62
        -98.93329828
 C          2.1970512053        0.2507879017        0.4035003669
 C          3.2480422594        0.6979372264       -0.4312820415
 C          4.3744722248       -0.2349300688       -0.6323998555
 C          4.3561870566       -1.4425055843       -0.0400836896
 C          5.3286076398       -2.6020453314       -0.1032239625
 C          6.7408182509       -2.4104481325       -0.6506483931
 C          7.6424192604       -1.5178282428        0.2012816217
 H          7.8649452773       -2.0392368424        1.1356987129
 H          8.5844884327       -1.3759398053       -0.3328102144
 C          7.0657135561       -0.1512796109        0.5627914831
 H          6.1795228598       -0.2804804349        1.1876610571
 H          7.8096391273        0.3761244589        1.1661718723
 C          6.7104891267        0.7433820773       -0.6231333813
 H          7.5780352074        0.8478415297       -1.2774745121
 H          6.4688888264        1.7331724098       -0.2267243857
 C          5.5114523214        0.2792969059       -1.4683006016
 H          5.8092545901       -0.4613582876       -2.2063134991
 H          5.1254216971        1.1468643474       -2.0108814610
 H          6.7025893387       -2.0473379034       -1.6733574331
 H          7.1972447706       -3.4034859226       -0.6843525157
 H          5.3904342872       -2.9916494284        0.9179020173
 H          4.8292148552       -3.3755333313       -0.6972791142
 O          3.3118890903       -1.8370891244        0.7473847509
 C          2.2304116525       -1.0146973474        0.9942861765
 O          1.3758791759       -1.5151535366        1.7545496228
 O          3.2725119832        1.8208577152       -1.0003904915
 C          0.9678180718        1.0872319680        0.7219712253
 C         -0.0335481243        1.0417899984       -0.4080793108
 C          0.2160179287        1.6540802182       -1.6322465294
 C         -0.7303761218        1.6127863610       -2.6393356209
 C         -1.9451864000        0.9802644835       -2.4426032477
 C         -2.1988131232        0.3548515169       -1.2275286066
 C         -1.2413607262        0.3845167160       -0.2232921175
 H         -1.4483451451       -0.1138046958        0.7132198245
 N         -3.4104314502       -0.3198304974       -1.0072272479
 S         -4.0829850285       -0.2713387985        0.5405643809
 O         -3.9542904002        1.0588275035        1.0922433363
 O         -3.5298180903       -1.3458782152        1.3260727980
 C         -5.7911065722       -0.6184966461        0.1628490778
 C         -6.1958927677       -1.9349901191        0.0489983185
 C         -7.5159751316       -2.2041242978       -0.2761574997
 C         -8.4039151260       -1.1586762683       -0.4821203342
 C         -7.9836480379        0.1574879114       -0.3622477867
 C         -6.6647142635        0.4337836876       -0.0380483837
 H         -6.2958565082        1.4404507689        0.0758417869
 H         -8.6771568325        0.9677341403       -0.5192653839
 H         -9.4306841760       -1.3712290616       -0.7346543034
 H         -7.8467984425       -3.2261570102       -0.3664018170
 H         -5.4722208009       -2.7132702364        0.2275971044
 H         -4.0991582123       -0.1368179305       -1.7242715435
 H         -2.6882582563        0.9611831266       -3.2255059736
 H         -0.5247726359        2.0903612614       -3.5854772960
 H          1.1628604628        2.1467319302       -1.7885253853
 H          0.4998442291        0.6030567436        1.5908068241
 C          1.2948789324        2.5207706174        1.0951452167
 C          0.2521743454        3.3326371610        1.8007041140
 C          1.4769543867        2.8805555125        2.5370873366
 H          2.2250694325        3.6153929912        2.7942802131
 H          1.3704838660        2.0910475920        3.2674650861
 H          0.1588058474        4.3788266009        1.5527602507
 H         -0.6878434423        2.8497186370        2.0270645440
 H          1.9239129908        3.0231493279        0.3727139045
