  62
        -98.93937750
 C          1.6068316728        1.3775445983        0.4116897339
 C          1.5705757479        0.3173034362       -0.5240852543
 C          2.4533248294       -0.8307120921       -0.2437915047
 C          3.2021212023       -0.8371857846        0.8719743968
 C          4.1230958477       -1.9183084832        1.3794803106
 C          5.0491378588       -2.5976574295        0.3607959021
 C          5.5276333963       -1.6951423686       -0.7857723307
 H          5.2940097356       -0.6521410371       -0.5650778937
 H          6.6131461731       -1.7740569711       -0.8696515390
 C          4.9248694604       -2.0783890552       -2.1395931697
 H          5.5559467900       -1.6703776518       -2.9329119892
 H          4.9432337087       -3.1662346225       -2.2360235050
 C          3.5029859925       -1.5782073331       -2.3911881120
 H          3.1563379367       -2.0116032261       -3.3325742938
 H          3.5111061275       -0.4927109890       -2.5227696741
 C          2.4804023036       -1.9079874446       -1.2910134643
 H          1.4877848371       -1.9160374774       -1.7499764415
 H          2.6714645313       -2.8881455571       -0.8603699174
 H          5.9124530207       -2.9664858958        0.9171256895
 H          4.5525148523       -3.4709791781       -0.0599234575
 H          4.7237746523       -1.4367464169        2.1546586702
 H          3.5142662197       -2.6815754589        1.8726231192
 O          3.1873699348        0.1964999345        1.7595262268
 C          2.4072082725        1.3183631153        1.5556485533
 O          2.5103649806        2.1834579063        2.4470240658
 H         -1.1272266443        1.7514026824       -1.5411636920
 C         -1.4973632413        1.7544582707       -0.5287433686
 C         -0.6885197833        2.2079491531        0.5011657863
 C         -1.1834154195        2.1736610006        1.8017310259
 C         -2.4560306408        1.6988604947        2.0614446946
 C         -3.2498622597        1.2176618341        1.0343570317
 C         -2.7556960339        1.2331613570       -0.2628494452
 N         -3.5188514304        0.6684587617       -1.3018641805
 S         -4.1476379795       -0.8539962689       -0.9960285796
 O         -4.1594093531       -1.5341608261       -2.2728609623
 O         -5.4346044394       -0.7144171210       -0.3583301323
 C         -3.0199629394       -1.6570993015        0.1365535839
 C         -3.5369939859       -2.2481405943        1.2721743218
 C         -2.6762625295       -2.8736123177        2.1592697433
 C         -1.3146833881       -2.8907242327        1.9008201849
 C         -0.8105047192       -2.2936425159        0.7561618911
 C         -1.6670485506       -1.6747828808       -0.1404024020
 H         -1.2791132753       -1.1986752753       -1.0275493807
 H          0.2499650304       -2.2918012791        0.5573314702
 H         -0.6401319768       -3.3680894062        2.5940493612
 H         -3.0674076035       -3.3386929912        3.0497429777
 H         -4.6006164129       -2.1984520563        1.4404118405
 H         -3.0420260318        0.6792164722       -2.1926780091
 H         -4.2350850122        0.8199222386        1.2184283060
 H         -2.8291438501        1.6875941996        3.0740586492
 H         -0.5485774769        2.5084665901        2.6100622013
 C          0.7417957890        2.6202417154        0.2556925147
 H          1.0457602775        3.3007887208        1.0613516720
 C          0.9623674314        3.3112165364       -1.0736554655
 C          0.4534900649        4.7076939655       -1.2625712633
 C          1.9264192714        4.4549655713       -1.1521744926
 H          2.5355034742        4.5553548382       -2.0381919625
 H          2.4294078707        4.7492993109       -0.2424824890
 H          0.0494592885        4.9853197736       -2.2241160176
 H         -0.0450829820        5.1727557329       -0.4255678201
 H          0.9274166024        2.6413838577       -1.9232903820
 O          0.8408836760        0.3043943503       -1.5502219430
