  62
        -98.93736713
 C         -1.6892347240       -1.7766325159       -0.0267495297
 C         -1.5454722704       -0.4341517341       -0.4458122963
 C         -2.6875912868        0.4628179215       -0.1777277715
 C         -3.7884026325       -0.0353597161        0.4129175329
 C         -5.0658777639        0.6747668198        0.7847416056
 C         -5.6444781001        1.6463912440       -0.2555164034
 C         -5.5246832064        3.1163041401        0.1510988205
 H         -5.7303317782        3.1984949481        1.2204884015
 H         -6.2949931578        3.6871362027       -0.3723654444
 C         -4.1774562939        3.7678013475       -0.1561269964
 H         -4.1764836103        4.7569332187        0.3079233460
 H         -4.0859021093        3.9147410940       -1.2344371046
 C         -2.9510879605        2.9939654128        0.3321954309
 H         -3.1327994779        2.5774757608        1.3222385698
 H         -2.1282317324        3.7044648354        0.4324701602
 C         -2.5010516132        1.8850275878       -0.6300749423
 H         -1.4262960283        1.9703452314       -0.8180388342
 H         -2.9887993563        2.0132170272       -1.6006000558
 H         -6.7047224244        1.4155719088       -0.3716557034
 H         -5.1714477551        1.4799018786       -1.2219622048
 H         -4.9092917857        1.1964453556        1.7323062950
 H         -5.7842149568       -0.1232995024        0.9861321442
 O         -3.8794419154       -1.3411176254        0.8001903307
 C         -2.8428615268       -2.2337977103        0.6085883652
 O         -3.0640981173       -3.3845618038        1.0370504588
 O         -0.5150464148        0.0061064987       -1.0190668921
 C         -0.5566378569       -2.7684549544       -0.2328238111
 C          0.6608530567       -2.2473625635        0.4893002345
 C          0.6203832150       -2.1554444448        1.8781856991
 C          1.6830409236       -1.6235734357        2.5830005681
 C          2.8066262961       -1.1628564748        1.9178165103
 C          2.8530333072       -1.2437935155        0.5328934445
 C          1.7907606999       -1.7963685148       -0.1720616742
 H          1.8433122825       -1.8498194394       -1.2476885337
 N          3.9880286046       -0.7762133615       -0.1576357082
 S          4.5025914941        0.7958562120        0.0939121930
 O          5.5002885708        1.0288853471       -0.9257849342
 O          4.9444785103        0.9343916925        1.4589460717
 C          3.0870358160        1.8402814833       -0.1968077580
 C          2.9105051432        2.3770231744       -1.4561110329
 C          1.8089769797        3.1816163418       -1.6938156072
 C          0.9022527843        3.4263384274       -0.6748541543
 C          1.0860058942        2.8684101646        0.5804274641
 C          2.1888287965        2.0672698522        0.8260298310
 H          2.3668812079        1.6242757911        1.7922856415
 H          0.3719757301        3.0494749285        1.3683162405
 H          0.0472874948        4.0575741658       -0.8623441297
 H          1.6579699646        3.6121119344       -2.6708342035
 H          3.6445987501        2.1683328377       -2.2178915459
 H          3.9498008395       -0.9584840718       -1.1506490037
 H          3.6387293830       -0.7309351237        2.4500354233
 H          1.6378113666       -1.5629625503        3.6601413070
 H         -0.2646193791       -2.5004895517        2.3961081114
 H         -0.8754141984       -3.7004688313        0.2536375157
 C         -0.3389504293       -3.0363092442       -1.7067739680
 C          0.3892336300       -4.2725901105       -2.1392575409
 C         -1.0882560368       -4.1558658365       -2.3614103453
 H         -1.4493726824       -4.0142434702       -3.3690618473
 H         -1.7496273671       -4.7424399393       -1.7404757284
 H          1.0422675749       -4.2160590602       -2.9970611279
 H          0.7345298865       -4.9434793467       -1.3672221294
 H         -0.1986227532       -2.1304872603       -2.2848780926
