  62
        -98.94335507
 C         -1.5461140194       -1.4121188907        0.4365758015
 C         -2.3774591796       -0.9185517821       -0.5991384090
 C         -3.3296971000        0.1316757680       -0.2083285600
 C         -3.3568926601        0.5796705393        1.0595497495
 C         -4.3205171105        1.5881644895        1.6266427185
 C         -3.9386717410        3.0547505994        1.3846995170
 C         -4.1063564712        3.5383438079       -0.0560723434
 H         -5.1120382011        3.3004241672       -0.4036334532
 H         -4.0143424016        4.6260082579       -0.0436341945
 C         -3.0686580410        2.9619692973       -1.0283556429
 H         -2.6556459513        3.7655495568       -1.6417646637
 H         -2.2459137008        2.5337285581       -0.4515584124
 C         -3.6087015406        1.8925837561       -1.9767042518
 H         -4.3570709908        2.3327595752       -2.6391305022
 H         -2.7828757005        1.5297650058       -2.5938457514
 C         -4.2354341202        0.6854799066       -1.2676339406
 H         -4.3963790899       -0.1016616842       -2.0081241998
 H         -5.1974330403        0.9610714967       -0.8355460608
 H         -4.5755756812        3.6652995798        2.0289617864
 H         -2.9043977710        3.2049423701        1.7034483969
 H         -5.3162532504        1.4015737587        1.2219989087
 H         -4.3468607104        1.4139670806        2.7046471687
 O         -2.5074300099        0.1130930805        2.0150897900
 C         -1.5971578496       -0.8919433294        1.7330184510
 O         -0.9058759395       -1.2413047982        2.7117704714
 O         -2.3607602395       -1.3386128333       -1.7840992685
 C         -0.5738723890       -2.5610383906        0.2126321627
 C          0.6138053708       -2.1118187610       -0.6047660378
 C          0.6240300908       -2.1505347324       -1.9946384877
 C          1.7407398707       -1.7353776027       -2.6972471282
 C          2.8620873405       -1.2705873617       -2.0334491687
 C          2.8599285705       -1.2197800303       -0.6446043087
 C          1.7409992507       -1.6427595400        0.0588428317
 H          1.7472607706       -1.5924330989        1.1386483817
 N          3.9902709903       -0.7578683292        0.0595834608
 S          3.8000038199        0.5116470019        1.1334444095
 O          5.1470956398        0.9494203626        1.4266819891
 O          3.0023474201        0.0981462727        2.2573323100
 C          2.9580622395        1.7541172806        0.1719682083
 C          3.7167572791        2.6823440402       -0.5145919827
 C          3.0796574488        3.5922488391       -1.3422317136
 C          1.7011425188        3.5454595385       -1.4829995335
 C          0.9547842391        2.6045670489       -0.7904917626
 C          1.5836701095        1.6997810200        0.0501677984
 H          1.0284978797        0.9619846504        0.6098962791
 H         -0.1166627108        2.5639750184       -0.9055200525
 H          1.2014738085        4.2448409876       -2.1342690242
 H          3.6572490785        4.3278771688       -1.8781992043
 H          4.7856938591        2.6785222607       -0.3748106427
 H          4.7894603403       -0.5795980295       -0.5332301994
 H          3.7347418204       -0.9515415119       -2.5830163990
 H          1.7366644107       -1.7715224638       -3.7758894281
 H         -0.2539873091       -2.4861441333       -2.5208784574
 H         -0.2012746689       -2.8252741695        1.2119849830
 C         -1.2650346886       -3.7746096615       -0.3782381661
 C         -0.5791320181       -5.1046512711       -0.3134799347
 C         -1.7823612182       -4.8389504207        0.5394969650
 H         -2.7118325280       -5.3283379413        0.2894660855
 H         -1.6362291983       -4.6985790296        1.6010506149
 H         -0.6808262479       -5.7794182820       -1.1493722741
 H          0.3855625819       -5.1441888503        0.1700948853
 H         -1.8566217087       -3.5518997725       -1.2563358063
