  62
        -98.93256246
 C         -1.6106471203       -0.0991474710        0.6283064993
 C         -2.7805009204       -0.8811717310        0.4913514190
 C         -4.0046694504       -0.1745824207        0.0583255996
 C         -3.9549531304        1.1474414194       -0.1795681597
 C         -5.0563110205        2.0711393396       -0.6350931290
 C         -6.4224229504        1.9053524393        0.0484929510
 C         -7.4929717305        1.3109005498       -0.8682555692
 H         -8.4760192705        1.6095097396       -0.4972211989
 H         -7.3761741307        1.7428740503       -1.8643822689
 C         -7.4832167105       -0.2130903902       -0.9747158800
 H         -8.1901127006       -0.4942565797       -1.7589862901
 H         -7.8488142204       -0.6430399807       -0.0395931202
 C         -6.1233996906       -0.8379873000       -1.2930791205
 H         -6.3034265306       -1.8212427697       -1.7331502611
 H         -5.5968241107       -0.2472808596       -2.0417092303
 C         -5.2331930004       -1.0359334207       -0.0570592908
 H         -5.8287959303       -0.9231046912        0.8534679394
 H         -4.8531876104       -2.0621039507       -0.0406619514
 H         -6.7600445004        2.8946108291        0.3618214216
 H         -6.3162807603        1.3015609588        0.9483915207
 H         -4.6719728205        3.0779074195       -0.4566264185
 H         -5.1689913906        1.9689050503       -1.7172764191
 O         -2.8004332604        1.8614222293       -0.0495528495
 C         -1.6190762604        1.2712203691        0.3500339801
 O         -0.6552832504        2.0589878891        0.4280618204
 H          2.1835306696       -0.0264702008        0.1698782288
 C          1.7633581695       -0.8617419005       -0.3692640216
 C          0.4874436596       -1.3073430007       -0.0573833217
 C         -0.0461781505       -2.3707504203       -0.7771658622
 C          0.6872127994       -2.9673819097       -1.7861047226
 C          1.9699728193       -2.5368946795       -2.0771957125
 C          2.5140143994       -1.4784566499       -1.3600244520
 N          3.8092910994       -1.0133781298       -1.6277433619
 S          4.8025815895       -0.5451821405       -0.3638598018
 O          6.1441702295       -0.6804776902       -0.8898365120
 O          4.5139591197       -1.2857936311        0.8415498578
 C          4.4472428196        1.1828285994       -0.1321861108
 C          4.5282834094        2.0203779700       -1.2267422803
 C          4.2724700694        3.3709881199       -1.0554079895
 C          3.9441468196        3.8589184192        0.2004143208
 C          3.8710712497        3.0058109886        1.2902996103
 C          4.1257455497        1.6537588387        1.1249754095
 H          4.0746698498        0.9547119882        1.9454171291
 H          3.6124341299        3.3865265381        2.2654496806
 H          3.7416936196        4.9101267291        0.3317932614
 H          4.3270136193        4.0391048804       -1.8998129592
 H          4.7889237593        1.6047371505       -2.1857818006
 H          4.3131814093       -1.5358839394       -2.3294297623
 H          2.5470106092       -3.0159555791       -2.8537687629
 H          0.2612897293       -3.7884060594       -2.3431140430
 H         -1.0372790205       -2.7230121404       -0.5371457622
 C         -0.2683264403       -0.6538347513        1.0750451488
 H          0.3169952798        0.2189735485        1.3954317192
 C         -0.3632979101       -1.6166641219        2.2450755683
 C          0.8885010800       -1.9630703824        2.9921249579
 C         -0.1579543799       -1.1058395527        3.6375398685
 H         -0.7509578198       -1.5288802632        4.4345764384
 H          0.0486502101       -0.0522654328        3.7588994191
 H          1.8116567299       -1.5024958322        2.6706698881
 H          1.0112467500       -2.9758763826        3.3447795373
 H         -1.0954250001       -2.3994664119        2.0987353879
 O         -2.8331879303       -2.1216796511        0.7097474983
