  62
        -98.94411047
 C         -2.0745526728       -1.3107412960       -0.1345779554
 C         -2.4618102190       -0.2532466114       -0.9928175372
 C         -3.8549990698        0.1999994671       -0.8614586967
 C         -4.6687995632       -0.4049179624        0.0222856400
 C         -6.0890105767       -0.0051682480        0.2960280589
 C         -6.1664693287        1.0183066889        1.4376520860
 C         -5.1977433097        2.1910277845        1.2838233521
 H         -5.3628609088        2.8620056142        2.1296596077
 H         -4.1725066116        1.8216800490        1.3636905391
 C         -5.3522450056        2.9747899171       -0.0270604974
 H         -5.3248656410        4.0429037700        0.1988538173
 H         -6.3248361131        2.7631420186       -0.4729740834
 C         -4.2538064040        2.7105290438       -1.0587007543
 H         -4.3365348252        3.4670328324       -1.8437901874
 H         -3.2734832404        2.8322929918       -0.5902139138
 C         -4.2951866416        1.3368425316       -1.7400867387
 H         -5.2949465018        1.1533607159       -2.1387584861
 H         -3.5901852575        1.3603598926       -2.5762723041
 H         -7.1894387109        1.3946353480        1.4951907091
 H         -5.9386876410        0.5080411991        2.3763333519
 H         -6.6487675767       -0.8973740933        0.5815821863
 H         -6.5255165617        0.4112121504       -0.6096614739
 O         -4.2672811880       -1.4321585644        0.8132218692
 C         -2.9631058932       -1.8930750828        0.7727579962
 O         -2.7198786089       -2.8159541802        1.5754357125
 O         -1.6963680393        0.2890428059       -1.8325959175
 C         -0.6489623338       -1.8401922051       -0.1294223070
 C          0.2540040789       -0.7628911394        0.4194345085
 C          0.3329431400       -0.5794612341        1.7970822089
 C          1.1274792043        0.4163384710        2.3340990033
 C          1.8580176277        1.2526853513        1.5077983160
 C          1.7787189481        1.0817626488        0.1326136398
 C          0.9905985816        0.0729402596       -0.4050047639
 H          0.9286710701       -0.0387643220       -1.4755666101
 N          2.5331222961        1.9216161401       -0.7094391150
 S          4.1786972470        1.9747935217       -0.4005601920
 O          4.4363328683        2.8845380711        0.6876466995
 O          4.8012907426        2.3064961339       -1.6627972044
 C          4.5888842530        0.3091072069        0.0910265737
 C          4.9643490577        0.0462125132        1.3922727191
 C          5.2124902343       -1.2650651695        1.7657156556
 C          5.0739557182       -2.2854157598        0.8379856800
 C          4.6973245622       -2.0047793221       -0.4666613786
 C          4.4497881277       -0.6959486978       -0.8457823351
 H          4.1606998950       -0.4424120340       -1.8530584351
 H          4.5899374801       -2.8006131410       -1.1862033840
 H          5.2606427412       -3.3063008800        1.1319871843
 H          5.5065359401       -1.4867015947        2.7789808456
 H          5.0559391218        0.8688052885        2.0824347506
 H          2.3547389959        1.7673265910       -1.6912662102
 H          2.4836531575        2.0360340154        1.9044538233
 H          1.1793019690        0.5441504955        3.4046352090
 H         -0.2459591647       -1.2268792968        2.4413472342
 H         -0.6443138200       -2.6783925816        0.5796982715
 C         -0.2238412266       -2.3510397190       -1.4907152791
 C          1.0381290019       -3.1514201726       -1.6056771388
 C         -0.2924064113       -3.8193231830       -1.7772078955
 H         -0.5875257618       -4.1369569127       -2.7661789139
 H         -0.6470893760       -4.4664617638       -0.9884108657
 H          1.6581784476       -3.0137790990       -2.4783266600
 H          1.5892138223       -3.3407768703       -0.6969520979
 H         -0.4745653024       -1.6775084358       -2.3006431615
