  62
        -98.93943669
 C         -2.2148769078       -0.9068538562       -0.0524643846
 C         -3.1902679936       -0.6496027308        0.9420947966
 C         -4.0213272602        0.5536039736        0.7678804718
 C         -3.8101354217        1.3504498812       -0.2961965740
 C         -4.4555538091        2.6568202451       -0.7096781025
 C         -5.7437687195        3.1364277069       -0.0460231948
 C         -6.9772083774        2.2895524902       -0.3590814941
 H         -7.2431209207        2.4399147560       -1.4084409389
 H         -7.8066146418        2.6555557413        0.2498224837
 C         -6.8203663794        0.7876348801       -0.1352756063
 H         -6.0513490506        0.3956482830       -0.8040366490
 H         -7.7629994207        0.3082688952       -0.4129071923
 C         -6.4919827080        0.3712953554        1.2968959853
 H         -6.5607845282       -0.7186422375        1.3467945818
 H         -7.2363521489        0.7849015020        1.9799230264
 C         -5.0931722933        0.7697811867        1.7974428279
 H         -4.8398695572        0.1231615830        2.6425185514
 H         -5.0788920299        1.7959442924        2.1566533903
 H         -5.9313133776        4.1446684315       -0.4253315298
 H         -5.6027425158        3.2261272719        1.0270709859
 H         -4.6156014231        2.5813953852       -1.7900808564
 H         -3.6851492939        3.4230790732       -0.5672956430
 O         -2.8442392465        1.0720442816       -1.2199032660
 C         -2.0306029972       -0.0455873626       -1.1322002317
 O         -1.2153273432       -0.1464311890       -2.0703519707
 O         -3.3588425935       -1.3952671770        1.9432462152
 C         -1.3285066927       -2.1301187967        0.1214158428
 C          0.0491407668       -1.6490394127        0.5042681986
 C          0.3420599456       -1.4037778385        1.8428497340
 C          1.5683677099       -0.8843544032        2.2131396132
 C          2.5233552735       -0.5860996465        1.2565476758
 C          2.2334779750       -0.8104872131       -0.0820425442
 C          1.0122871643       -1.3586051763       -0.4498544994
 H          0.7948533231       -1.5125989662       -1.4950500188
 N          3.1887197809       -0.4841753894       -1.0629135879
 S          3.8343960177        1.0673963697       -1.0154575215
 O          2.9268102589        2.0087394488       -0.4003236006
 O          4.2404770795        1.3542177154       -2.3743191489
 C          5.2936635073        0.8810214436       -0.0096431858
 C          6.2311048110       -0.0596781244       -0.3894455241
 C          7.3741480459       -0.2133397613        0.3786217850
 C          7.5614040621        0.5736287681        1.5053353609
 C          6.6132075408        1.5167059889        1.8709614274
 C          5.4669232562        1.6746525478        1.1073226609
 H          4.6995043594        2.3907626880        1.3554156706
 H          6.7602288030        2.1283654272        2.7466430806
 H          8.4516630586        0.4517427003        2.1018803359
 H          8.1138307341       -0.9453895678        0.0972532200
 H          6.0488836259       -0.6473442140       -1.2735175571
 H          2.8769518140       -0.6974069515       -2.0003192088
 H          3.4766128639       -0.1676127882        1.5353766410
 H          1.7824871870       -0.7039307715        3.2555936752
 H         -0.4136451357       -1.6091361249        2.5879415311
 H         -1.7500277842       -2.6730767848        0.9776879300
 C         -1.3450481465       -3.0408278529       -1.0879197200
 C         -0.8043782314       -4.4326553732       -0.9588337186
 C         -2.2787323051       -4.2123526713       -1.1093531619
 H         -2.7484535971       -4.4778104788       -2.0446676333
 H         -2.9096442743       -4.3646876273       -0.2460308801
 H         -0.2592775227       -4.8537019627       -1.7896277352
 H         -0.4330425474       -4.7325391273        0.0093173488
 H         -1.1883653418       -2.5202715748       -2.0245048865
