  62
        -98.94475248
 C         -0.4121900017       -1.7743910348       -0.9640829584
 C         -1.5389799686       -2.1821052233       -0.2065771419
 C         -2.7599363012       -1.3821051327       -0.3590524620
 C         -2.7489595160       -0.3233042642       -1.1878776215
 C         -3.9219962583        0.5782164958       -1.4464527481
 C         -3.9372020057        1.7917859845       -0.5078555461
 C         -3.7198573037        1.4430896397        0.9647223902
 H         -2.7031604619        1.0663785777        1.1070737233
 H         -3.7877721755        2.3751447995        1.5319468261
 C         -4.7259385954        0.4309095529        1.5305659338
 H         -5.0487139302        0.7776071679        2.5146990103
 H         -5.6108967936        0.3921405260        0.8934511507
 C         -4.1731009312       -0.9832994587        1.7188675048
 H         -4.8719238579       -1.5397912754        2.3497235794
 H         -3.2190934598       -0.9311544255        2.2510066987
 C         -3.9655139978       -1.7967057207        0.4348222259
 H         -3.7909453658       -2.8375615927        0.7231388795
 H         -4.8690408599       -1.7562009712       -0.1776596443
 H         -4.8954745330        2.3029661930       -0.6224709193
 H         -3.1490009758        2.4834542133       -0.8145660981
 H         -4.8393250035        0.0049834874       -1.3241731388
 H         -3.8606254982        0.9298275555       -2.4781083428
 O         -1.6487487300        0.0528243943       -1.8832885181
 C         -0.4421171269       -0.6341675749       -1.7683482794
 O          0.4773842145       -0.1301352362       -2.4357503983
 O         -1.5254147661       -3.1909071503        0.5514078573
 C          0.8564728072       -2.5877641420       -0.7707972765
 C          1.5805064097       -2.1068851567        0.4616781737
 C          2.1169579964       -2.9947474694        1.3865195231
 C          2.7426528100       -2.5248936866        2.5281772663
 C          2.8161619607       -1.1672135245        2.7842310982
 C          2.2777117557       -0.2725571168        1.8667147406
 C          1.6944792417       -0.7457391587        0.7021073823
 H          1.2921851798       -0.0439190596       -0.0115909190
 N          2.3053609527        1.1129268573        2.0844228180
 S          0.9658373037        2.0115203706        1.6210052937
 O          1.0297893068        3.2012181427        2.4471544050
 O         -0.2528332642        1.2428345478        1.7267532314
 C          1.2788211031        2.4788630428       -0.0655896898
 C          2.5762922853        2.6843620622       -0.4889957996
 C          2.7938943920        3.0844564812       -1.7971465001
 C          1.7190573492        3.2778558126       -2.6508379268
 C          0.4226115484        3.0746737090       -2.2074399553
 C          0.1988624014        2.6728812113       -0.9013702007
 H         -0.7922037923        2.4809315102       -0.5201896334
 H         -0.4134345142        3.2108327862       -2.8745475400
 H          1.8916553729        3.5807218284       -3.6715420404
 H          3.8015355583        3.2369452025       -2.1494499812
 H          3.3886060353        2.5152848835        0.1984118011
 H          2.6600640917        1.4012839311        2.9848645739
 H          3.2753357840       -0.8010840550        3.6898575703
 H          3.1570852474       -3.2234976119        3.2390691388
 H          2.0214617985       -4.0573909363        1.2184827432
 H          0.5129387368       -3.6151788821       -0.5667869332
 C          1.7518154713       -2.6390522206       -1.9989953972
 C          3.0228373713       -1.8584275401       -2.1166601159
 C          3.0745299774       -3.3447403241       -1.9412557516
 H          3.3682787930       -3.9561290914       -2.7809055253
 H          3.3978118825       -3.7226511464       -0.9833205392
 H          3.2601261223       -1.4337321293       -3.0794437098
 H          3.3116018723       -1.2344018530       -1.2854222485
 H          1.1760318272       -2.7576671929       -2.9108454958
