  62
        -98.93948048
 C         -1.1982030017       -1.7494163577       -0.1370792121
 C         -1.4436868966       -0.6012755169       -0.9293639399
 C         -2.8011298104       -0.0267114198       -0.8433899420
 C         -3.7056876686       -0.5675188035       -0.0114985396
 C         -5.1411881416       -0.1632076205        0.2149783755
 C         -5.4503096995        1.3372232643        0.3063591744
 C         -4.3362595221        2.1957520318        0.9236933608
 H         -4.7615597355        2.8135696961        1.7170954917
 H         -3.5756360640        1.5600142386        1.3808602289
 C         -3.6696659430        3.1278891437       -0.0907688742
 H         -4.4449663658        3.5750525240       -0.7179211293
 H         -3.1743909422        3.9385562586        0.4495097259
 C         -2.6125346891        2.4773132363       -0.9825850406
 H         -1.7192768134        2.2596520656       -0.3900787339
 H         -2.3191248261        3.2109577385       -1.7387491335
 C         -3.0498515682        1.1862378405       -1.6935641922
 H         -4.0893517784        1.2466225647       -2.0086013669
 H         -2.4233082926        1.0656480511       -2.5817321709
 H         -5.6839423497        1.7224087885       -0.6852850396
 H         -6.3582577362        1.4365633541        0.9036930001
 H         -5.7484353892       -0.6053648248       -0.5804032916
 H         -5.4284806203       -0.6534738679        1.1483654237
 O         -3.4173715846       -1.6531138784        0.7614845680
 C         -2.1783284486       -2.2649372679        0.7139755312
 O         -2.0714063774       -3.2572474928        1.4641690702
 H          0.6265064305        0.1131870206        0.4787962029
 C          1.2037438054       -0.5563478480        1.0958205123
 C          1.0492498471       -1.9272770647        0.9580334649
 C          1.7848585619       -2.7703678643        1.7830088016
 C          2.6542603289       -2.2491409572        2.7238872065
 C          2.8176341145       -0.8814879861        2.8493371768
 C          2.0830402894       -0.0293602684        2.0315099707
 N          2.2208375319        1.3577306849        2.1423822401
 S          1.8630966426        2.3723887645        0.8681556872
 O          2.5985188065        3.5840372295        1.1735049829
 O          0.4360481238        2.5307886329        0.7480093141
 C          2.5538577722        1.6124729916       -0.5904339638
 C          1.8445809237        1.6561668878       -1.7720685960
 C          2.3914257908        1.0700151027       -2.9028290450
 C          3.6310376586        0.4554493829       -2.8325374605
 C          4.3369851929        0.4306660021       -1.6392175760
 C          3.7974233210        1.0168763656       -0.5066251012
 H          4.3261865716        1.0105194532        0.4325305004
 H          5.3016772686       -0.0478438205       -1.5868756116
 H          4.0484831098       -0.0083683286       -3.7125702882
 H          1.8357255681        1.0848712777       -3.8265358028
 H          0.8691974564        2.1139711667       -1.7847143196
 H          2.9831989096        1.6866797608        2.7144531927
 H          3.4975786740       -0.4720689318        3.5804643872
 H          3.2147662327       -2.9132827621        3.3638013287
 H          1.6591531640       -3.8388518853        1.6940876872
 C          0.1280325279       -2.4899191639       -0.0986722666
 H         -0.1151876728       -3.5230385202        0.1875898618
 C          0.8620674623       -2.5182357708       -1.4264672155
 C          1.7830605012       -3.6593288886       -1.7319242439
 C          0.4796167322       -3.5314977146       -2.4606693318
 H          0.4886905405       -3.2336999973       -3.4979957670
 H         -0.3139815007       -4.2218417169       -2.2128994047
 H          2.6948439520       -3.4512613715       -2.2695845649
 H          1.8740615031       -4.4449800041       -0.9975192720
 H          1.1466504409       -1.5342774794       -1.7755834396
 O         -0.6002445253       -0.0682920209       -1.6946414599
