  62
        -98.94342175
 C         -2.4850128214       -1.1192792088        0.0062820200
 C         -3.4646921370       -0.6235445880        0.9089352364
 C         -4.4578194263        0.3003581252        0.3537090802
 C         -4.4156524897        0.6134610146       -0.9536318702
 C         -5.3736500498        1.5164679487       -1.6818501936
 C         -5.0395765222        3.0097562387       -1.5622872042
 C         -5.3179121386        3.6311205956       -0.1930107107
 H         -5.2503505591        4.7141348369       -0.3134355629
 H         -6.3402582245        3.4005376900        0.1079785139
 C         -4.3430970032        3.1956539148        0.9100886004
 H         -3.4513557977        2.7565015243        0.4565576063
 H         -4.0157359519        4.0722559580        1.4735080239
 C         -4.9256895526        2.2028296829        1.9160194174
 H         -4.1397632108        1.9345638216        2.6265117349
 H         -5.7360146152        2.6782196585        2.4730649900
 C         -5.4590439874        0.9082437863        1.2888606383
 H         -6.3968462613        1.1006327434        0.7680447791
 H         -5.6438261420        0.1891247749        2.0905423401
 H         -3.9881586404        3.1543905174       -1.8213824063
 H         -5.6406505769        3.5378052065       -2.3061638019
 H         -6.3877132917        1.3394858799       -1.3222123651
 H         -5.3245685588        1.2357515186       -2.7362003240
 O         -3.4748033315        0.1063294541       -1.7910385503
 C         -2.4817892430       -0.7515838430       -1.3390602920
 O         -1.6886406969       -1.0976832165       -2.2395432825
 O         -3.5112740754       -0.9511465752        2.1240254874
 C         -1.4622955974       -2.0833690487        0.5837672713
 C         -0.1363727907       -1.4137845542        0.8586906421
 C          0.3674348945       -1.3400311400        2.1521148329
 C          1.5957392955       -0.7516040333        2.3978345331
 C          2.3437000945       -0.2216684357        1.3619191016
 C          1.8478300115       -0.2866647848        0.0662751614
 C          0.6196932889       -0.8844603811       -0.1776945568
 H          0.2378466210       -0.9295582499       -1.1871356176
 N          2.5895574588        0.2702966946       -0.9923084324
 S          4.1746770269       -0.2514521399       -1.1909119403
 O          4.4829310625       -0.0174182268       -2.5846478351
 O          4.3496803655       -1.6032059631       -0.7114490062
 C          5.1257402635        0.8748271160       -0.1914973168
 C          5.0387866129        2.2251485694       -0.4684710797
 C          5.7781567848        3.1137317974        0.2956872591
 C          6.5899686063        2.6396159151        1.3155647291
 C          6.6696804869        1.2805945985        1.5782773477
 C          5.9314962541        0.3864442873        0.8184281265
 H          5.9574323942       -0.6780349188        0.9887110174
 H          7.3019221559        0.9140177719        2.3709194653
 H          7.1642756670        3.3337608457        1.9085839747
 H          5.7190623398        4.1712086752        0.0940930291
 H          4.4001752883        2.5511520995       -1.2724979831
 H          2.0990116866        0.2395435733       -1.8751974738
 H          3.2995785690        0.2404883246        1.5470150278
 H          1.9742425952       -0.7026882859        3.4073649170
 H         -0.2159620472       -1.7408201558        2.9682302018
 H         -1.8831320777       -2.3941014141        1.5496444218
 C         -1.2629299103       -3.3220912878       -0.2689328734
 C         -0.7206262605       -4.5642235682        0.3691286002
 C         -2.1548921646       -4.5075329299       -0.0622623204
 H         -2.4598370818       -5.0788575175       -0.9261498505
 H         -2.9145923179       -4.4332089180        0.7021627602
 H         -0.0347249218       -5.1756124586       -0.1970641385
 H         -0.5080078289       -4.5307058568        1.4268821000
 H         -0.9563594561       -3.1029408718       -1.2837417504
