  62
        -98.94068981
 C         -1.3606945030       -1.4652669361        0.4108920653
 C         -1.8822555112       -0.3852436153        1.1693611617
 C         -3.0004017138        0.3493238567        0.5677407831
 C         -3.4461247771        0.0008144164       -0.6524593908
 C         -4.6048129498        0.6216370290       -1.3848681496
 C         -4.2471684660        1.8986574662       -2.1569658002
 C         -3.9886105388        3.1302772727       -1.2887219055
 H         -3.9684950570        3.9936523170       -1.9565743197
 H         -4.8238535562        3.2702470489       -0.6017692376
 C         -2.6716264349        3.0838501319       -0.5011857533
 H         -2.0152912726        2.3225949939       -0.9293333554
 H         -2.1568847560        4.0409991140       -0.6021607009
 C         -2.8334496151        2.8112867535        0.9941995633
 H         -1.8376123476        2.7491148620        1.4385487452
 H         -3.3665742466        3.6408468279        1.4637145108
 C         -3.5737630078        1.5092089625        1.3244159659
 H         -4.6375022610        1.6133535001        1.1105342036
 H         -3.4494571335        1.3051175258        2.3907898073
 H         -3.3700601823        1.6976834052       -2.7763725358
 H         -5.0826975625        2.1192762541       -2.8254230749
 H         -5.4102936987        0.8339814935       -0.6810480334
 H         -4.9560227542       -0.1259484952       -2.0995146061
 O         -2.8835564845       -1.0035621762       -1.3730134892
 C         -1.8182505377       -1.7482401719       -0.8776478767
 O         -1.3987963360       -2.6053737230       -1.6757676591
 O         -1.4386303074       -0.0555270425        2.3012975190
 C         -0.2191237480       -2.2593608135        1.0210981362
 C          0.9292985146       -2.3478380953        0.0499450439
 C          1.2803030178       -3.5169220776       -0.6120795726
 C          2.3270403525       -3.5190631875       -1.5162577374
 C          3.0564813282       -2.3693263471       -1.7580549146
 C          2.7174661205       -1.1953498956       -1.0958512559
 C          1.6541176609       -1.1907315511       -0.2079610094
 H          1.3852220649       -0.2728882186        0.2965522146
 N          3.4354044087       -0.0061939922       -1.3107564847
 S          3.9051223021        0.8897359121        0.0263729531
 O          5.0710692231        1.6241730690       -0.4187363681
 O          4.0896393514        0.0485303953        1.1856812940
 C          2.5850142844        2.0503002874        0.3009310743
 C          2.1957498069        2.8607410437       -0.7473010357
 C          1.2192929747        3.8178588931       -0.5250700779
 C          0.6569792787        3.9522148801        0.7355746167
 C          1.0523397957        3.1251025314        1.7751969617
 C          2.0266430506        2.1638813288        1.5581851796
 H          2.3599071003        1.4986832450        2.3392461551
 H          0.6067712805        3.2204558743        2.7527377873
 H         -0.0938598506        4.7064130524        0.9113401271
 H          0.9025773404        4.4587945208       -1.3320766950
 H          2.6647708074        2.7335375239       -1.7088256300
 H          4.1928591370       -0.0916953325       -1.9736769317
 H          3.8797035680       -2.3756108856       -2.4568198459
 H          2.5831737326       -4.4304397573       -2.0352022039
 H          0.7151343801       -4.4177421340       -0.4385630492
 H          0.1126654283       -1.6443621442        1.8744871454
 C         -0.6227508243       -3.6080954801        1.5975016114
 C         -1.9650444454       -3.7935061569        2.2384296596
 C         -1.6410057342       -4.5029110619        0.9596596609
 H         -1.4736980797       -5.5696458284        0.9960814663
 H         -2.1087293034       -4.1670531673        0.0480215749
 H         -2.0267100009       -4.3704797116        3.1488373730
 H         -2.6530431483       -2.9613510291        2.1996738566
 H          0.2148781715       -4.0990143940        2.0845937282
