  62
        -98.93974089
 C          2.5987873578        1.1890088945        0.2926796026
 C          2.4728673936        0.3483788299       -0.8378544167
 C          3.1547697829       -0.9561595727       -0.7628668603
 C          3.8705362916       -1.2697714521        0.3335004259
 C          4.6995553883       -2.4949938319        0.6574384845
 C          4.4877802185       -3.8020068433       -0.1034188514
 C          3.1175437157       -4.4494524253        0.0945601913
 H          3.0566228173       -5.3233342444       -0.5575936649
 H          3.0411000167       -4.7991912116        1.1271972270
 C          1.9147050836       -3.5475284343       -0.1754763172
 H          1.0063140299       -4.1367174204       -0.0186087775
 H          1.8932000415       -2.7353650889        0.5551026564
 C          1.8412017716       -2.9513613051       -1.5807833696
 H          0.8600203329       -2.4763330550       -1.6820920626
 H          1.9009368595       -3.7511730387       -2.3214936110
 C          2.9096130552       -1.8919940247       -1.9099292264
 H          3.8372831585       -2.3524362075       -2.2411805919
 H          2.5317848120       -1.2786640107       -2.7330442318
 H          4.6874648059       -3.6599251269       -1.1612877208
 H          5.2393495064       -4.5026450460        0.2702468810
 H          5.7452697767       -2.1916976674        0.5355302868
 H          4.5527584635       -2.6761162003        1.7267656255
 O          3.9937906284       -0.4060049746        1.3842534790
 C          3.3420914306        0.8158172594        1.4088478354
 O          3.4966060125        1.4611749940        2.4658802604
 H          0.3552956027        0.6034328558        1.3892711177
 C         -0.2278708072        1.2279205175        0.7218555086
 C          0.3935246985        2.2899320304        0.0763402541
 C         -0.3687503007        3.0824901273       -0.7713824774
 C         -1.7073120947        2.7982628850       -0.9812534865
 C         -2.3150063718        1.7275950425       -0.3521094710
 C         -1.5645688655        0.9342905198        0.5059253118
 N         -2.1733423120       -0.1543623598        1.1593135276
 S         -2.9645902040       -1.2870354705        0.1996904228
 O         -2.9429288396       -2.5120531025        0.9703234080
 O         -2.4014590800       -1.3527569407       -1.1283704856
 C         -4.6354641276       -0.6753064944        0.1313917127
 C         -5.2284937319       -0.4215610677       -1.0897177098
 C         -6.5301069083        0.0552296404       -1.1159359753
 C         -7.2115031090        0.2677919554        0.0726917571
 C         -6.6024722893        0.0047295451        1.2908435075
 C         -5.3021674336       -0.4729373052        1.3239935405
 H         -4.7932516679       -0.6929986909        2.2475333626
 H         -7.1355173938        0.1709864451        2.2130704052
 H         -8.2233368383        0.6405522293        0.0495008863
 H         -7.0050376799        0.2600488834       -2.0619418002
 H         -4.6564483971       -0.5953809820       -1.9873273303
 H         -1.5568473435       -0.6254712382        1.8062524338
 H         -3.3535088655        1.4959626625       -0.5234497158
 H         -2.2848650218        3.4178033580       -1.6502145627
 H          0.0885369815        3.9153938346       -1.2796828563
 C          1.8654118572        2.5171934887        0.3279640976
 H          1.9861483203        2.9072466312        1.3495174599
 C          2.5004109764        3.4901527695       -0.6438820972
 C          2.4817352372        4.9619958763       -0.3636583333
 C          3.7607989624        4.1915573770       -0.2388837557
 H          4.5301673163        4.3396834459       -0.9816562831
 H          4.1437521435        3.9858090089        0.7503617687
 H          2.3763431752        5.6438165423       -1.1939957765
 H          2.0004174906        5.2923616480        0.5443315339
 H          2.4192170906        3.1595692443       -1.6730849417
 O          1.8200415782        0.6675858613       -1.8650789077
