  62
        -98.93863441
 C         -2.6222206058        0.1632773490        0.4687956474
 C         -2.3096276439        0.8574577942       -0.7249853585
 C         -1.7108045120        2.1870074674       -0.5557254465
 C         -1.5022484060        2.6702300008        0.6817567766
 C         -0.8665095739        3.9892539345        1.0285385034
 C          0.6240745454        4.1052925491        0.6505154768
 C          0.8761229090        4.8028572968       -0.6924735470
 H          0.0190307937        5.4363939089       -0.9251945075
 H          1.7372464887        5.4659125477       -0.5871141967
 C          1.1643075160        3.8783968682       -1.8793357749
 H          1.0594520486        4.4663200973       -2.7943047072
 H          2.2006851025        3.5389992827       -1.8195894815
 C          0.2849054125        2.6315314375       -1.9855823555
 H          0.4503450383        2.1787409947       -2.9658197883
 H          0.6043675436        1.8921873342       -1.2470286428
 C         -1.2229829668        2.8869669885       -1.7906904202
 H         -1.7811155621        2.4649475484       -2.6291220525
 H         -1.4317041849        3.9544876401       -1.7369091438
 H          1.1105789637        4.6852964690        1.4366620225
 H          1.0716709675        3.1102696098        0.6572228299
 H         -1.4315943988        4.7949081091        0.5545983048
 H         -0.9738182082        4.0940077508        2.1100663631
 O         -1.8728757433        1.9948812529        1.8050370136
 C         -2.3920894886        0.7136333125        1.7273811865
 O         -2.6164085079        0.1795616769        2.8357231393
 O         -2.5077313409        0.3852604214       -1.8752613785
 C         -3.0662829927       -1.2857559176        0.3966324941
 C         -1.9947772565       -2.0912297456       -0.3040447290
 C         -2.2686950442       -3.1530709949       -1.1557110406
 C         -1.2342623815       -3.8386779486       -1.7710167747
 C          0.0835919073       -3.4754038820       -1.5667091283
 C          0.3680750306       -2.4101713747       -0.7170875638
 C         -0.6666745039       -1.7539991693       -0.0748853036
 H         -0.4328086131       -0.9469322685        0.6041683336
 N          1.6891521941       -1.9669456237       -0.5439213036
 S          2.1066743817       -0.8769655012        0.6635304819
 O          1.8223513355       -1.4278191369        1.9719450648
 O          1.5270033939        0.4085068124        0.3669093553
 C          3.8678287008       -0.8130332063        0.3983967095
 C          4.3488278055       -0.0383526085       -0.6402859368
 C          5.7140699017       -0.0053546834       -0.8752350218
 C          6.5709006301       -0.7444140798       -0.0727533821
 C          6.0740479494       -1.5153747996        0.9672567707
 C          4.7091732448       -1.5531850719        1.2068230710
 H          4.2769361002       -2.1307675972        2.0081281310
 H          6.7425741820       -2.0860775013        1.5913989140
 H          7.6331095677       -0.7168972550       -0.2574897777
 H          6.1039475458        0.5949523091       -1.6812934562
 H          3.6442496915        0.5232500123       -1.2318996728
 H          2.3886202093       -2.6810463327       -0.6854140447
 H          0.8853131677       -3.9977857445       -2.0650296487
 H         -1.4603153915       -4.6638157320       -2.4292870200
 H         -3.2908805896       -3.4399593381       -1.3417678609
 H         -3.1343516054       -1.6377989066        1.4376624232
 C         -4.4285635170       -1.4091897065       -0.2535816845
 C         -5.3693406244       -2.5008283929        0.1574187294
 C         -5.6462381353       -1.0834182613        0.5562465989
 H         -6.4591771038       -0.5589177254        0.0773349686
 H         -5.4909019786       -0.8001484182        1.5875186076
 H         -5.9981034367       -2.9500952338       -0.5964559076
 H         -5.0385270723       -3.1847566473        0.9246431006
 H         -4.4192245440       -1.1005868305       -1.2923518421
