  62
        -98.93728199
 C         -1.3080835539       -1.5428508647        0.1786752438
 C         -2.3421511564       -1.0694992002        1.0211981143
 C         -3.2174104480       -0.0106081797        0.4820390975
 C         -2.9516819585        0.4839306940       -0.7409277594
 C         -3.7178330592        1.5423690837       -1.4887284396
 C         -3.4459330306        2.9732296237       -0.9860991507
 C         -3.2249233764        3.1005214904        0.5200178251
 H         -2.4610935914        2.3862205276        0.8337807977
 H         -2.8366367276        4.1026741596        0.7212985419
 C         -4.4790065962        2.9133837772        1.3708871377
 H         -4.1865603823        3.0031427101        2.4203563091
 H         -5.1803629498        3.7223228383        1.1518759798
 C         -5.2126631145        1.5864996110        1.1848549221
 H         -5.6965781983        1.5520454645        0.2125977435
 H         -6.0108867594        1.5475333903        1.9322839795
 C         -4.3585943310        0.3407745512        1.4051306499
 H         -5.0210984148       -0.5341670282        1.4144433683
 H         -3.9219375051        0.3823218666        2.4095542885
 H         -4.2780709498        3.6117868924       -1.2863719183
 H         -2.5473210470        3.3391225998       -1.4856087545
 H         -3.4080163612        1.4743147331       -2.5334914450
 H         -4.7787556077        1.3087608654       -1.4470173869
 O         -1.8829576739        0.0698929677       -1.4752995280
 C         -1.0424915206       -0.9496957657       -1.0568360984
 O         -0.1299785789       -1.2141191537       -1.8577929559
 O         -2.5361270344       -1.5165585690        2.1848158535
 C         -0.4464207060       -2.6835758767        0.6901259858
 C          1.0118009762       -2.3647104597        0.4842396570
 C          1.8488849750       -3.0876357316       -0.3543847465
 C          3.1709829553       -2.7120707956       -0.5190647585
 C          3.6879847851       -1.6180914037        0.1499564956
 C          2.8588443335       -0.8895054386        0.9929398074
 C          1.5353876858       -1.2658453544        1.1552837963
 H          0.8881650077       -0.6904398045        1.8065681414
 N          3.3761612534        0.2344359307        1.6752483836
 S          3.8975292210        1.5032568818        0.7118313532
 O          5.0724193890        1.0903232725       -0.0115231599
 O          4.0619321622        2.6230739215        1.6114476119
 C          2.5498341417        1.8097005038       -0.4126341388
 C          2.5064917720        1.1466140364       -1.6220166895
 C          1.4204578279        1.3502290307       -2.4575588063
 C          0.4019970961        2.2058034706       -2.0690112982
 C          0.4584229463        2.8612802803       -0.8488175527
 C          1.5395312743        2.6587254069       -0.0075710152
 H          1.6244860661        3.1553242377        0.9461863653
 H         -0.3367327405        3.5239550466       -0.5458489302
 H         -0.4449127239        2.3519780431       -2.7208275400
 H          1.3629353343        0.8278025810       -3.3981043492
 H          3.3161027969        0.4878076574       -1.8900126329
 H          2.7411885900        0.5948542503        2.3741673664
 H          4.7109370864       -1.3038379214        0.0201422453
 H          3.8079086882       -3.2784217331       -1.1815753232
 H          1.4592773131       -3.9299057938       -0.9016604204
 H         -0.6386582968       -2.7053481765        1.7760143687
 C         -0.8443967834       -4.0512744814        0.1553121315
 C         -2.2685432934       -4.3541970914       -0.1999428022
 C         -1.2282856759       -4.2785743682       -1.2749477073
 H         -0.9156959139       -5.1979212234       -1.7483601189
 H         -1.2288339820       -3.4261323891       -1.9356607071
 H         -2.6694655381       -5.3211553419        0.0646354853
 H         -2.9851547003       -3.5492852895       -0.1238188502
 H         -0.2926697160       -4.8492033557        0.6431556430
