  62
        -98.93735989
 C         -2.3521712975        0.4022636535        0.3632494189
 C         -3.0972891620       -0.7783572672        0.1177704440
 C         -4.3308172013       -0.5983078405       -0.6634776207
 C         -4.6618935688        0.6156626222       -1.1362907704
 C         -5.8725944806        0.9461134608       -1.9661833897
 C         -7.1452473598        1.1882296683       -1.1428761587
 C         -7.7702862626       -0.0641429447       -0.5267236615
 H         -8.7625559069        0.2168424425       -0.1681386557
 H         -7.9061307949       -0.8195527130       -1.3012280635
 C         -6.9742049938       -0.6603786395        0.6426149788
 H         -6.2673144531        0.0831416219        1.0184479695
 H         -7.6552030118       -0.8969415221        1.4633726619
 C         -6.2116802833       -1.9410745199        0.3027955447
 H         -5.6553966090       -2.2544020204        1.1899133796
 H         -6.9204167483       -2.7335950154        0.0527601050
 C         -5.2148268761       -1.7940184072       -0.8540734005
 H         -4.5758544503       -2.6801316302       -0.8703937439
 H         -5.7465370295       -1.7272608656       -1.8027865653
 H         -6.9187883664        1.9088168639       -0.3534549734
 H         -7.8812627107        1.6455417313       -1.8081545752
 H         -5.6349637059        1.8626788970       -2.5103901994
 H         -6.0513419413        0.1493526927       -2.6886783695
 O         -3.8931450221        1.7170390471       -0.9195378042
 C         -2.7439770937        1.6402189064       -0.1534552964
 O         -2.1579372532        2.7326524089       -0.0017951015
 O         -2.7704013068       -1.9246045882        0.5139220998
 C         -1.0817172632        0.4254621255        1.1972795097
 C          0.1287168202        0.1176610214        0.3559518157
 C          0.2076092002       -1.0407593525       -0.4112983576
 C          1.3424239081       -1.3151714349       -1.1527817888
 C          2.4178635339       -0.4429399371       -1.1477368775
 C          2.3415956782        0.7226791790       -0.3991463801
 C          1.2030760635        0.9951141152        0.3452189743
 H          1.1506974267        1.9081836861        0.9244325425
 N          3.4524240505        1.6038600655       -0.3837820986
 S          4.6855739774        1.0898037099        0.6477755674
 O          4.1409835464        0.4687011062        1.8351595205
 O          5.5238493727        2.2486907519        0.8615737888
 C          5.5589970739       -0.1152388766       -0.3246373312
 C          6.3257311159        0.3291519706       -1.3842070839
 C          6.9967703108       -0.6024557911       -2.1600573026
 C          6.8887274058       -1.9536077535       -1.8650366840
 C          6.1159309904       -2.3826506020       -0.7965571150
 C          5.4424148262       -1.4561574875       -0.0159118201
 H          4.8278537119       -1.7429554215        0.8222369107
 H          6.0330669077       -3.4333284246       -0.5694186862
 H          7.4108502816       -2.6771261612       -2.4711320221
 H          7.5999043049       -0.2734407561       -2.9909034617
 H          6.3851828666        1.3881632714       -1.5728986393
 H          3.1942283765        2.5467157794       -0.1239385337
 H          3.3026945183       -0.6503158835       -1.7271458880
 H          1.3909954365       -2.2191310664       -1.7404477528
 H         -0.6291143900       -1.7229433359       -0.4125949824
 H         -0.9862761982        1.4690063849        1.5388141128
 C         -1.1711078671       -0.4401002684        2.4475533040
 C         -0.4199524506       -1.7184415746        2.6452537268
 C         -0.0149893317       -0.4924551348        3.4032954816
 H         -0.2148049215       -0.4434453706        4.4631765537
 H          0.9028575834       -0.0045062467        3.1061247433
 H         -0.9244213856       -2.5146587393        3.1708895214
 H          0.2288872837       -2.0621430456        1.8560119445
 H         -2.1612158544       -0.3970207778        2.8911162910
