  62
        -98.93820082
 C         -1.9199052198       -0.9745877993        0.3078264934
 C         -2.2720684292        0.2101289725       -0.3773974886
 C         -3.6260981073        0.7488730140       -0.1265285170
 C         -4.4317818337        0.1119193744        0.7427217814
 C         -5.8475541856        0.4503375043        1.1268653147
 C         -6.8656177252        0.0592698849        0.0433458568
 C         -6.4534594317        0.4123166205       -1.3833006378
 H         -7.2007184144       -0.0116547677       -2.0593172532
 H         -5.5008288649       -0.0694443447       -1.6105911468
 C         -6.3503726613        1.9065293395       -1.6796550543
 H         -7.3168730741        2.3776300410       -1.4869900779
 H         -6.1372149289        2.0119413806       -2.7465416709
 C         -5.2749474581        2.6699858532       -0.9037334727
 H         -5.5935538192        2.8697180809        0.1157868502
 H         -5.1556537496        3.6444546192       -1.3866778893
 C         -3.8983491467        2.0126492110       -0.9069070671
 H         -3.1631201126        2.7432581962       -0.5476904946
 H         -3.6074791355        1.7979177745       -1.9415792546
 H         -7.8190669934        0.5354500046        0.2780806429
 H         -7.0084556520       -1.0230863662        0.0898587026
 H         -5.9265360023        1.5055465551        1.3710686497
 H         -6.0696348242       -0.1175413163        2.0331271351
 O         -4.0423949793       -1.0205741045        1.3950275751
 C         -2.7987275910       -1.5841555007        1.2071459923
 O         -2.5912064152       -2.6125502648        1.8816957430
 O         -1.5103470005        0.8097767445       -1.1825156206
 C         -0.5558302791       -1.6293959722        0.1519147407
 C          0.4731631411       -0.7875861869        0.8661392326
 C          0.7645196842       -1.0382651490        2.2032034009
 C          1.6898586498       -0.2662562408        2.8822829508
 C          2.3396955780        0.7755904512        2.2435549102
 C          2.0459008990        1.0397151495        0.9128130633
 C          1.1286055477        0.2549859246        0.2281313553
 H          0.8950980515        0.4815365103       -0.8002247978
 N          2.7074520866        2.0999181969        0.2543693526
 S          4.3647706009        1.9175503194        0.0886371166
 O          4.9875094475        2.0797675602        1.3777786138
 O          4.7639107672        2.8540584692       -0.9371558983
 C          4.5626751676        0.2399306817       -0.4826011366
 C          4.4300896443       -0.0151823998       -1.8329270340
 C          4.4938685092       -1.3257969255       -2.2768019405
 C          4.6737064122       -2.3547774715       -1.3650628627
 C          4.8025259492       -2.0818387787       -0.0122269288
 C          4.7464133486       -0.7723860178        0.4374761875
 H          4.8467278849       -0.5187383601        1.4798664511
 H          4.9429413303       -2.8838662342        0.6944591879
 H          4.7138952464       -3.3754212183       -1.7116486584
 H          4.3993508922       -1.5408632624       -3.3292884762
 H          4.2938827078        0.8136767761       -2.5092307374
 H          2.2974163418        2.3138967554       -0.6442028676
 H          3.0708613889        1.3836785092        2.7516272063
 H          1.9066173293       -0.4757614794        3.9188582201
 H          0.2466800303       -1.8418684476        2.7078546375
 H         -0.6281818161       -2.5889547244        0.6803661866
 C         -0.1946741618       -1.8973880166       -1.2953735577
 C          0.9923733239       -2.7614106276       -1.5950156986
 C         -0.3918995837       -3.2702621842       -1.8604799658
 H         -0.7213553916       -3.3621928472       -2.8846534628
 H         -0.7931906209       -4.0290476913       -1.2045801377
 H          1.6181492109       -2.5043834366       -2.4354497460
 H          1.5330127319       -3.1699658350       -0.7547891211
 H         -0.3902595115       -1.0605180403       -1.9528789686
