  62
        -98.94850524
 C         -1.2477504790       -1.5173443383        0.4959706943
 C         -2.1535972350       -1.1668049612       -0.5339456513
 C         -3.1859298615       -0.1858819292       -0.1708910838
 C         -3.2208759187        0.3063965330        1.0804879823
 C         -4.1974008148        1.3345982266        1.5719581870
 C         -3.6394515402        2.7563212725        1.4225105926
 C         -3.0663295916        3.0601166591        0.0377696872
 H         -2.7555096070        4.1078044368        0.0412348780
 H         -2.1578169774        2.4713436016       -0.1147887559
 C         -4.0419102584        2.8223273713       -1.1233866413
 H         -3.9630732518        3.6617226148       -1.8176826339
 H         -5.0662491631        2.8064146075       -0.7482062745
 C         -3.7769078791        1.5514340086       -1.9331306571
 H         -2.7192136633        1.5108168469       -2.2081563438
 H         -4.3551391713        1.6124206425       -2.8592528257
 C         -4.1481434156        0.2308582973       -1.2464021379
 H         -5.1665898128        0.2905968769       -0.8571446569
 H         -4.1127811447       -0.5591443933       -2.0023924620
 H         -4.4385061994        3.4649094883        1.6504671084
 H         -2.8403631797        2.8963970087        2.1544010461
 H         -5.1275388451        1.2383819872        1.0151568549
 H         -4.3950337054        1.1426095690        2.6282774485
 O         -2.3374050787       -0.0581236916        2.0443432283
 C         -1.3094263929       -0.9443488538        1.7649643987
 O         -0.5271636957       -1.1425782047        2.7183028001
 H          0.4174576491        0.1020651615       -0.2585798257
 C          0.9683926268       -0.5343261229       -0.9325089156
 C          0.7950770984       -1.9088362909       -0.8691380556
 C          1.4916175135       -2.7033988274       -1.7719919427
 C          2.3241976780       -2.1240179082       -2.7140748972
 C          2.4968990638       -0.7522748816       -2.7681011116
 C          1.8066850173        0.0501559139       -1.8671474308
 N          1.9347797121        1.4468415474       -1.8811526751
 S          1.8631672609        2.3051648206       -0.4485362719
 O          0.5138037920        2.3421134630        0.0555474206
 O          2.4490548669        3.5874430318       -0.7770321744
 C          2.9453976624        1.4207646244        0.6600826730
 C          2.4411042363        0.6595653402        1.6939422255
 C          3.3225954244       -0.0557848545        2.4902801374
 C          4.6847395552        0.0028750470        2.2434756220
 C          5.1779144410        0.7811126702        1.2064699324
 C          4.3021453153        1.4935013065        0.4050659345
 H          4.6459569643        2.1187378654       -0.4028783291
 H          6.2385175023        0.8310399885        1.0201520184
 H          5.3641997823       -0.5584524692        2.8651649042
 H          2.9269081130       -0.6571732937        3.2934680387
 H          1.3776542059        0.6234201350        1.8731039954
 H          2.6362796064        1.8101993291       -2.5087286256
 H          3.1466734891       -0.3049134294       -3.5043028726
 H          2.8525156091       -2.7516438697       -3.4154790086
 H          1.3756288158       -3.7745563156       -1.7427843747
 C         -0.1057244560       -2.4722002869        0.2054795729
 H          0.4825899954       -2.5336985590        1.1340191980
 C         -0.6354748754       -3.8527955387       -0.1266658165
 C          0.1274876156       -5.0773338306        0.2781740414
 C         -1.1421415297       -4.7172904427        0.9874774112
 H         -2.0222952877       -5.3182666884        0.8153115118
 H         -1.0751373232       -4.3201209009        1.9902666560
 H          1.0573263125       -4.9370092445        0.8084800596
 H          0.1175141206       -5.9320275195       -0.3813952024
 H         -1.1807828175       -3.8724808207       -1.0629883925
 O         -2.1029654155       -1.6451127224       -1.6974157303
