  62
        -98.94034769
 C          1.9913210202        0.5284089204        0.0145614803
 C          2.5850974600       -0.6368001995        0.5653484707
 C          3.9272212799       -0.9800997300        0.0809620507
 C          4.4977829000       -0.2112389205       -0.8641821096
 C          5.8772327899       -0.4139608410       -1.4189919697
 C          6.9198343902        0.3806991191       -0.6203637601
 C          6.8169568702        0.1872875496        0.8925387500
 H          7.6201874204        0.7687418196        1.3502323297
 H          5.8731568204        0.6114223900        1.2427084499
 C          6.9165789999       -1.2734333702        1.3538863305
 H          7.3557454397       -1.8829340206        0.5632741007
 H          7.5887485500       -1.3242843301        2.2130899405
 C          5.5876317898       -1.8924790198        1.7913018509
 H          5.8034076597       -2.8369380496        2.2980498112
 H          5.0992497001       -1.2367559894        2.5165646607
 C          4.5891955697       -2.1954328599        0.6667588911
 H          3.7826008896       -2.8001376096        1.0917394313
 H          5.0804915995       -2.7803491903       -0.1136573588
 H          7.9139713201        0.0847767787       -0.9602312400
 H          6.7878804604        1.4427345390       -0.8396330204
 H          5.8855788899       -0.0695139814       -2.4544797398
 H          6.1188969797       -1.4749111810       -1.3976619793
 O          3.8885477402        0.8774465295       -1.3932925000
 C          2.6256890803        1.2808427399       -0.9750487500
 O          2.2114942305        2.3001978398       -1.5557664604
 O          2.0147815299       -1.3532846191        1.4321670710
 C          0.6080611304        0.8895092609        0.5294825103
 C         -0.4360531098        0.2606159408       -0.3565037594
 C         -0.5520604099        0.6178044603       -1.6969716795
 C         -1.5151076601        0.0318713103       -2.4974899692
 C         -2.3815009602       -0.9170140893       -1.9808854788
 C         -2.2687399702       -1.2832724389       -0.6473623587
 C         -1.3017290800       -0.6934686688        0.1563555810
 H         -1.2104528700       -0.9921157685        1.1919190911
 N         -3.1760864004       -2.2239887285       -0.1122431883
 S         -4.7783064403       -1.7206961481       -0.1176191883
 O         -5.4450756204       -2.5248005176        0.8810355920
 O         -5.2972738904       -1.8087413685       -1.4582107283
 C         -4.6845296798       -0.0161828780        0.3983242810
 C         -4.5230493297        0.2519009425        1.7432739709
 C         -4.3395461194        1.5640163926        2.1481001804
 C         -4.3076313592        2.5791936022        1.2041971401
 C         -4.4736870194        2.2934773218       -0.1419686298
 C         -4.6628880997        0.9836872017       -0.5529286093
 H         -4.7953496998        0.7204024313       -1.5893494292
 H         -4.4487871493        3.0856241815       -0.8728983901
 H         -4.1480097689        3.5980184923        1.5190442997
 H         -4.2138477192        1.7904082829        3.1949370503
 H         -4.5550210998       -0.5650681873        2.4466629412
 H         -2.9208237004       -2.5344823582        0.8149607918
 H         -3.1476240904       -1.3732925394       -2.5869215286
 H         -1.5944217101        0.3177551899       -3.5354287893
 H          0.1228315703        1.3591441201       -2.0973205099
 H          0.5458614703        0.3968419113        1.5118228205
 C          0.4023973207        2.3845525710        0.7417785197
 C         -0.7705748792        3.1368953311        0.1910071896
 C         -0.6894421991        2.8537894016        1.6580650297
 H         -0.4829135889        3.6666117918        2.3374641594
 H         -1.3557563492        2.1019977419        2.0546504900
 H         -0.5970715390        4.1444991009       -0.1546216608
 H         -1.5025229393        2.5957041610       -0.3879087502
 H          1.3381166108        2.9299425608        0.7845599295
