  62
        -98.94419681
 C         -1.9803443617       -1.3027622240        0.0332408475
 C         -2.3075986463       -0.3377629524       -0.9499049760
 C         -3.7177185399        0.0791217403       -0.9940762082
 C         -4.5978007044       -0.4630374713       -0.1335346914
 C         -6.0472863026       -0.0875645191       -0.0350886877
 C         -6.2599730857        1.0406336530        0.9839864579
 C         -5.3131846568        2.2267029961        0.7991016915
 H         -5.5759545307        2.9731390241        1.5518724594
 H         -4.2907429205        1.9048004489        1.0109900761
 C         -5.3631248150        2.8676772697       -0.5949006297
 H         -5.3882393093        3.9534143829       -0.4800756575
 H         -6.2817618406        2.5749435552       -1.1047639788
 C         -4.1632438853        2.5421760596       -1.4864617576
 H         -4.1907812766        3.2119354799       -2.3502684165
 H         -3.2367742601        2.7474237270       -0.9435640909
 C         -4.1006025430        1.1062190321       -2.0222637460
 H         -5.0516409938        0.8468914817       -2.4917443712
 H         -3.3189139780        1.0717644305       -2.7867709449
 H         -7.2936807007        1.3830463258        0.9093405616
 H         -6.1078273579        0.6350019659        1.9868571053
 H         -6.6091330334       -0.9661374992        0.2864454717
 H         -6.4051853817        0.2216992848       -1.0151241424
 O         -4.2486807220       -1.3933136574        0.7907635165
 C         -2.9382860010       -1.8204460517        0.9097680528
 O         -2.7525934176       -2.6573724556        1.8153324418
 O         -1.4796062527        0.1550697484       -1.7606856159
 C         -0.5562828821       -1.8045900404        0.2184735401
 C          0.2726018853       -0.6912456187        0.8104778475
 C          0.3045337862       -0.5184477935        2.1909186564
 C          1.0361446744        0.5085449405        2.7592511654
 C          1.7456131750        1.3900792899        1.9618199641
 C          1.7099681070        1.2312476741        0.5834172698
 C          0.9886148074        0.1904414569        0.0149904821
 H          0.9576420930        0.0880978984       -1.0581560943
 N          2.4362331016        2.1256506893       -0.2349063430
 S          4.1026709680        2.0363894661       -0.0849688992
 O          4.4831992453        2.5355364881        1.2117970052
 O          4.6412162112        2.7395401035       -1.2267978138
 C          4.4618088120        0.2933961883       -0.2009475259
 C          4.4503822859       -0.4751297679        0.9456939527
 C          4.6420554766       -1.8429392844        0.8350598153
 C          4.8396108447       -2.4153107668       -0.4118878400
 C          4.8509709236       -1.6287436571       -1.5536019000
 C          4.6530500989       -0.2615116832       -1.4505118737
 H          4.6572147428        0.3862122665       -2.3126634720
 H          5.0087728820       -2.0764641958       -2.5218137491
 H          4.9854058938       -3.4808446059       -0.4946335539
 H          4.6333463241       -2.4567679352        1.7214092587
 H          4.2984004639        0.0073771141        1.8971101120
 H          2.1812559031        2.0524759618       -1.2102211522
 H          2.3307604187        2.1909872171        2.3843717275
 H          1.0531297266        0.6261170735        3.8322792076
 H         -0.2611282741       -1.1975514845        2.8137344238
 H         -0.6197442095       -2.6087891062        0.9630370171
 C          0.0301624562       -2.3696239091       -1.0592861051
 C          1.3157667676       -3.1362053935       -0.9883002619
 C          0.0305985908       -3.8516801672       -1.2747171750
 H         -0.1414313296       -4.2257953381       -2.2728447863
 H         -0.3956206651       -4.4703897749       -0.4985780014
 H          2.0314000859       -3.0192017930       -1.7872884831
 H          1.7636330096       -3.2636286360       -0.0144732159
 H         -0.1407538288       -1.7454982959       -1.9268385149
