  62
        -98.93290123
 C          1.5568261608        1.3052077506        0.6061758505
 C          1.9973189107        0.7623023604       -0.6251378394
 C          2.9215722701       -0.3831996800       -0.5336885193
 C          3.2500303397       -0.8759804603        0.6732730907
 C          4.2299356791       -1.9855947608        0.9289715008
 C          5.6713370793       -1.4509761715        0.8069028011
 C          6.4670218893       -2.0399542918       -0.3583180787
 H          7.3706635696       -1.4377394322       -0.4746114285
 H          6.7789063287       -3.0538909520       -0.0991215087
 C          5.7355194595       -2.1054042313       -1.7026253989
 H          5.0681516791       -2.9684657010       -1.7161915991
 H          6.4931483596       -2.2870942417       -2.4679708987
 C          4.9324895702       -0.8574883509       -2.0919879590
 H          5.0591599405       -0.6935287109       -3.1641644189
 H          5.3261751306        0.0255701189       -1.5879809488
 C          3.4181808401       -0.9620052502       -1.8301097793
 H          2.8908576405       -0.4019576599       -2.6083372793
 H          3.1055813796       -2.0070376900       -1.9097438094
 H          6.2153997691       -1.6568280618        1.7299126112
 H          5.6263453799       -0.3645022015        0.7055506512
 H          4.0620592788       -2.7973135006        0.2246210407
 H          4.0472406287       -2.3540101407        1.9385344008
 O          2.7713377997       -0.3564241001        1.8329348107
 C          1.9350222402        0.7460261803        1.8310345606
 O          1.5988091602        1.1332803204        2.9666994505
 O          1.6470718012        1.1906684607       -1.7563102895
 C          0.6432894713        2.5184180210        0.7058057504
 C         -0.8016939988        2.1077040618        0.5876134101
 C         -1.7237174389        2.4220358322        1.5783608000
 C         -3.0440843690        2.0207342928        1.4648037597
 C         -3.4699794492        1.2980703831        0.3649084895
 C         -2.5524955692        0.9723393027       -0.6263978603
 C         -1.2303858190        1.3748118120       -0.5110952900
 H         -0.5205905090        1.1226340117       -1.2852134599
 N         -2.9671904593        0.2222249830       -1.7410565904
 S         -3.9067759101       -1.1291165966       -1.4475787607
 O         -3.6245492303       -2.0393164266       -2.5348839707
 O         -5.2859376899       -0.7336701159       -1.3040210609
 C         -3.3148739307       -1.7971845870        0.0990321094
 C         -1.9740123409       -2.1087416676        0.2098683996
 C         -1.5000008013       -2.6113289579        1.4105073497
 C         -2.3705093716       -2.7953462276        2.4740771195
 C         -3.7145624215       -2.4823274269        2.3456206892
 C         -4.1933318610       -1.9754364166        1.1481062192
 H         -5.2290250908       -1.7126344861        1.0063729490
 H         -4.3881310317       -2.6275973866        3.1746602191
 H         -1.9948633420       -3.1836074078        3.4075846095
 H         -0.4530524415       -2.8494949685        1.5141295699
 H         -1.3176802806       -1.9576301579       -0.6329684403
 H         -2.2205590793        0.0185677827       -2.3897130403
 H         -4.4951900793        0.9827068736        0.2568789193
 H         -3.7497808991        2.2726434831        2.2413178596
 H         -1.3963921388        2.9728080919        2.4478405901
 H          0.7946451013        2.9033768509        1.7260584605
 C          1.0354262821        3.6305485109       -0.2594219594
 C          0.1762644325        4.0978869214       -1.3924004596
 C          0.3456629527        4.9605059912       -0.1804551195
 H          0.9386300932        5.8591854709       -0.2577755893
 H         -0.4944909674        5.0412441516        0.4929468104
 H          0.6716947529        4.3822518212       -2.3084357494
 H         -0.7786352577        3.6210158919       -1.5475606798
 H          2.1061976421        3.6520016204       -0.4354602792
