  62
        -98.92572272
 C         -2.1897160695       -0.8409352397        0.7781969095
 C         -2.6859417992       -0.2661187296       -0.4131942006
 C         -3.1912441889        1.1202726405       -0.3208119808
 C         -3.1221723690        1.7607811905        0.8605504092
 C         -3.5310941287        3.1736095006        1.1861625191
 C         -2.5306023684        4.2160248104        0.6648811792
 C         -2.0696315482        3.9971468602       -0.7733789707
 H         -1.3070457680        4.7489527301       -0.9935814306
 H         -1.5880323184        3.0200425001       -0.8483596606
 C         -3.1634673880        4.1145408304       -1.8326099209
 H         -3.6318520278        5.0981161005       -1.7554046110
 H         -2.6745636279        4.0545545703       -2.8080931108
 C         -4.2588503983        3.0461493506       -1.7876794210
 H         -4.7912876981        3.0863259307       -2.7422729311
 H         -4.9927169983        3.2636423608       -1.0162317612
 C         -3.7462392086        1.6179454405       -1.6340126809
 H         -4.5583787587        0.9257339107       -1.8862180510
 H         -2.9676061285        1.4304895503       -2.3821132207
 H         -2.9835463183        5.2046305605        0.7596436791
 H         -1.6454861486        4.1851245502        1.3056550094
 H         -4.5286178886        3.3723304508        0.8057585289
 H         -3.5693060889        3.2433987407        2.2756439191
 O         -2.6043824693        1.1716985905        1.9793090493
 C         -2.1336711096       -0.1247851296        1.9716393895
 O         -1.7027383598       -0.5274169497        3.0741193896
 H          0.4793316905       -0.8443692902        0.6246641600
 C          0.4452278005       -1.5394745803       -0.2038314400
 C         -0.6403525196       -2.4076596300       -0.3165899302
 C         -0.6598571396       -3.2765473901       -1.3988751601
 C          0.3757674106       -3.2779231803       -2.3200714199
 C          1.4544836407       -2.4268995506       -2.1896434198
 C          1.4803926807       -1.5361254705       -1.1207301098
 N          2.5360959709       -0.6197045907       -0.9820281597
 S          2.9224057907       -0.0184202507        0.5431032603
 O          2.9908836803       -1.0957434407        1.5054459604
 O          2.0267957909        1.0693653995        0.8518393301
 C          4.5594825809        0.6156283189        0.2289621106
 C          4.6953760313        1.8641728289       -0.3479395894
 C          5.9679600714        2.3434338186       -0.6156995492
 C          7.0772464712        1.5707496784       -0.3052429890
 C          6.9255053708        0.3204760085        0.2752029810
 C          5.6556077607       -0.1649743613        0.5449834508
 H          5.4881762104       -1.1259132912        1.0042576808
 H          7.7892987207       -0.2766246817        0.5190773112
 H          8.0662783213        1.9469284382       -0.5137640988
 H          6.0895310017        3.3164764386       -1.0635317193
 H          3.8045680014        2.4315914490       -0.5621158896
 H          3.3558510709       -0.8709013009       -1.5167972695
 H          2.2587953908       -2.4353366508       -2.9090288997
 H          0.3369327706       -3.9618190404       -3.1545598599
 H         -1.4830025697       -3.9477537299       -1.5594948202
 C         -1.6589368298       -2.2693775798        0.7909789897
 H         -1.0910901900       -2.3521542099        1.7344165898
 C         -2.8372227600       -3.2201547295        0.9404935895
 C         -3.7053097699       -3.7124664094       -0.1745494806
 C         -2.8396754902       -4.6761779096        0.5837259796
 H         -3.3256427105       -5.3542971794        1.2699315695
 H         -1.9670427602       -5.0943896398        0.1102249997
 H         -4.7716115199       -3.7416870192       -0.0011753608
 H         -3.4457427397       -3.4227600895       -1.1794383006
 H         -3.3617464301       -2.9660610994        1.8603255794
 O         -2.7131504391       -0.8692788597       -1.5163429006
