  62
        -98.94398149
 C         -2.1143149290       -0.8922659353        0.0532789407
 C         -2.4985364139        0.4533744169       -0.1604273495
 C         -3.8064494037        0.8391965438        0.3901289564
 C         -4.5382759058       -0.0718524545        1.0569338193
 C         -5.9086591335        0.1720333561        1.6179367464
 C         -6.9989867118       -0.1840697378        0.5975575132
 C         -6.7703266326        0.4205444203       -0.7877196526
 H         -5.8744411781       -0.0238125407       -1.2272403529
 H         -7.6152983678        0.1267278749       -1.4141684936
 C         -6.6335314687        1.9495095631       -0.7983633026
 H         -7.2337540850        2.3496372451       -1.6182816099
 H         -7.0336970118        2.3639852821        0.1276363188
 C         -5.2049113878        2.4566741573       -1.0036467764
 H         -5.2508296286        3.5293826260       -1.2100655824
 H         -4.7670199153        1.9737149695       -1.8808569592
 C         -4.2509695840        2.2594958128        0.1812191656
 H         -4.7057445727        2.6589771588        1.0900902927
 H         -3.3405089523        2.8298697920       -0.0259784938
 H         -7.9606996030        0.1524170046        0.9890480631
 H         -7.0352863027       -1.2710746278        0.4947867007
 H         -6.0340692301       -0.4535805614        2.5032672496
 H         -5.9956088594        1.2171411286        1.9088365313
 O         -4.1262710350       -1.3495266373        1.2580040392
 C         -2.9098921942       -1.7910079934        0.7650724892
 O         -2.6514671976       -2.9836709389        1.0236350228
 O         -1.7933996225        1.2914810722       -0.7808405266
 C         -0.7811077209       -1.4012375013       -0.4696245975
 C          0.3303752052       -0.6185599347        0.1857539422
 C          0.4998097386       -0.7351793463        1.5633089775
 C          1.4822365363       -0.0187717353        2.2190555708
 C          2.3169325192        0.8329932128        1.5160186763
 C          2.1586783304        0.9531043720        0.1424325581
 C          1.1796942129        0.2195899301       -0.5174905214
 H          1.0669919101        0.3315131384       -1.5839985210
 N          3.0024852926        1.8138408875       -0.5771197713
 S          4.6392606512        1.7884427648       -0.2427068268
 O          4.9103337696        2.5606489945        0.9443190556
 O          5.2804556786        2.2477487560       -1.4546959881
 C          5.0208706403        0.0704787489        0.0533353013
 C          5.4908924537       -0.3306808629        1.2868934074
 C          5.7486028149       -1.6754343009        1.5012638510
 C          5.5287650312       -2.5911854133        0.4844381169
 C          5.0589262921       -2.1720010440       -0.7510727148
 C          4.8007648444       -0.8291312032       -0.9711306575
 H          4.4411902878       -0.4703807165       -1.9220190891
 H          4.8903640140       -2.8863620823       -1.5408818521
 H          5.7255061876       -3.6380347638        0.6540787269
 H          6.1162105854       -2.0040774334        2.4599914343
 H          5.6465004886        0.4139356765        2.0504880530
 H          2.8195746999        1.8421549927       -1.5688226736
 H          3.0753477322        1.4159206480        2.0128858012
 H          1.5976265089       -0.1178566723        3.2877544499
 H         -0.1603037362       -1.3924822752        2.1131580222
 H         -0.7050406811       -2.4447890730       -0.1342327714
 C         -0.7516831312       -1.3729701405       -1.9829184986
 C          0.2147010104       -2.2461142908       -2.7240939699
 C         -1.2495021482       -2.5652483409       -2.7407722271
 H         -1.8045685353       -2.4012889673       -3.6524039337
 H         -1.5979111959       -3.4104974400       -2.1652247128
 H          0.6657052069       -1.8677337774       -3.6290179913
 H          0.8623802636       -2.8797703113       -2.1377448443
 H         -0.9790932846       -0.3955619245       -2.3922567366
