  62
        -98.93331846
 C         -2.0942695254       -1.2536548323        0.1728008111
 C         -3.0314380310       -0.6538974960        1.0478595033
 C         -3.8797710340        0.4171477528        0.4930396548
 C         -3.6698104533        0.8222394294       -0.7719711252
 C         -4.3947298272        1.8843951576       -1.5595117606
 C         -4.7048078290        3.1993309883       -0.8276346065
 C         -6.1909758428        3.3885226012       -0.5175946448
 H         -6.3920533275        4.4571088796       -0.4140631725
 H         -6.7712776043        3.0291638370       -1.3699393390
 C         -6.6831562420        2.7007898360        0.7547237447
 H         -6.2900150289        3.2290029356        1.6260965032
 H         -7.7712064351        2.7952843799        0.7811267212
 C         -6.3162778263        1.2209637690        0.8816155022
 H         -6.4279212734        0.7167321244       -0.0776968597
 H         -7.0268219498        0.7583111374        1.5697718591
 C         -4.9044156095        0.9832501367        1.4381585623
 H         -4.5128857720        1.9086021624        1.8708209946
 H         -4.9490500702        0.2635948767        2.2615720863
 H         -4.3886804485        4.0202722456       -1.4735053535
 H         -4.1143905267        3.2645083725        0.0851794611
 H         -5.3186510351        1.4525932263       -1.9527177711
 H         -3.7529086160        2.0824518958       -2.4212522742
 O         -2.7109762378        0.2596214886       -1.5613867544
 C         -1.9052738168       -0.7829081593       -1.1270905819
 O         -1.0866525579       -1.1742277577       -1.9783734053
 O         -3.1571113439       -0.9980303349        2.2545599955
 C         -1.2209373021       -2.3662313175        0.7259815279
 C          0.2250711482       -2.0901932430        0.3981968635
 C          1.0296870105       -2.9443122097       -0.3428416614
 C          2.3411557822       -2.6011684753       -0.6231181887
 C          2.8784402683       -1.4104204203       -0.1707536271
 C          2.0808265860       -0.5462757933        0.5682975823
 C          0.7707496441       -0.8956071842        0.8532315210
 H          0.1464313819       -0.2175587156        1.4237369836
 N          2.6176131748        0.6648404545        1.0421643990
 S          3.4189815998        1.6580230246       -0.0504317162
 O          3.3194805831        2.9873648804        0.5141726370
 O          2.9201240545        1.4934594424       -1.3958705108
 C          5.1116105751        1.1139316475        0.0498621002
 C          5.7116866719        1.0748987190        1.2933596380
 C          7.0313566092        0.6627611668        1.3861987084
 C          7.7257245163        0.3024669592        0.2407741258
 C          7.1100009755        0.3503995402       -1.0004959917
 C          5.7893725751        0.7604087068       -1.1002965057
 H          5.2663928716        0.8070924678       -2.0424145637
 H          7.6508730718        0.0701765696       -1.8901065133
 H          8.7528699983       -0.0178149811        0.3158792738
 H          7.5133665520        0.6236446056        2.3497107471
 H          5.1379875006        1.3658941697        2.1573103260
 H          1.9644851338        1.2063347929        1.5903429341
 H          3.8963636805       -1.1370271011       -0.3960077116
 H          2.9532656888       -3.2703342404       -1.2083895310
 H          0.6225792589       -3.8652399271       -0.7261181613
 H         -1.3395371750       -2.2838755457        1.8196907915
 C         -1.6734332068       -3.7686071526        0.3498866310
 C         -3.1142103142       -4.0609279596        0.0584434853
 C         -2.0981335570       -4.1339159160       -1.0396818220
 H         -1.8247186886       -5.1080953114       -1.4181709466
 H         -2.0862299772       -3.3565418880       -1.7872024037
 H         -3.5372747286       -4.9809597221        0.4328541913
 H         -3.8040109346       -3.2293597990        0.0619813630
 H         -1.1350323421       -4.5280469853        0.9085080949
