  62
        -98.94470282
 C          1.8241870570        0.1009847074        0.1671770040
 C          2.8615782672        0.8348369745        0.7907176249
 C          4.1910951311        0.2110670444        0.7718745790
 C          4.3410699945       -0.9988542310        0.2022903587
 C          5.6469563730       -1.7263928406        0.0686238719
 C          6.3376750607       -1.3878821675       -1.2598337999
 C          6.4218152107        0.1111604241       -1.5475455083
 H          6.9549580636        0.2311552044       -2.4931985495
 H          5.4126906965        0.5023299970       -1.6961754562
 C          7.1264260426        0.9285158067       -0.4557468803
 H          7.7191530024        0.2673277431        0.1774080846
 H          7.8180596435        1.6262205407       -0.9326238899
 C          6.1871503314        1.7605512794        0.4193274107
 H          6.7947566154        2.4574587004        1.0026874884
 H          5.5262035653        2.3553359807       -0.2161168787
 C          5.3215766956        0.9698226702        1.4084783484
 H          4.8543660838        1.6880605950        2.0885515545
 H          5.9528834452        0.3005310022        1.9963534416
 H          7.3422030555       -1.8147174958       -1.2453254467
 H          5.7789363355       -1.8612876398       -2.0705888515
 H          6.2924479666       -1.4611286762        0.9036636947
 H          5.4475780565       -2.7988420208        0.1011643110
 O          3.3157232898       -1.6846806672       -0.3648254840
 C          2.0349095692       -1.1519507297       -0.4083151173
 O          1.1958991726       -1.8800956396       -0.9714810358
 O          2.6821293310        1.9543750910        1.3410022064
 C          0.4278785949        0.6973936644        0.1264926120
 C         -0.5479991007       -0.2380355511        0.7934212623
 C         -0.2769361230       -0.6585497682        2.0942750738
 C         -1.1184148129       -1.5392152476        2.7432499972
 C         -2.2570113036       -2.0118596803        2.1136065131
 C         -2.5415258634       -1.5928285694        0.8202026425
 C         -1.6955766370       -0.7015654390        0.1708098673
 H         -1.9317233704       -0.4092919807       -0.8384153132
 N         -3.6833470526       -2.0641039990        0.1605256501
 S         -4.5124841313       -1.1157838847       -0.9271821708
 O         -5.8395706761       -1.6938853204       -0.9639652024
 O         -3.8224979019       -1.0569213633       -2.1911887341
 C         -4.5856403668        0.5130272139       -0.1999117435
 C         -4.9219061883        0.6408397841        1.1334331266
 C         -4.9892495966        1.9082218331        1.6887819734
 C         -4.7271268048        3.0220995232        0.9058041029
 C         -4.4005653086        2.8782870569       -0.4333135656
 C         -4.3285151478        1.6122968352       -0.9924227167
 H         -4.0725830594        1.4533724390       -2.0274046241
 H         -4.1987641401        3.7443922622       -1.0431526871
 H         -4.7785323397        4.0075544438        1.3412540100
 H         -5.2449688497        2.0232573931        2.7297559639
 H         -5.1269211529       -0.2394841125        1.7200420733
 H         -4.2940586627       -2.6504308548        0.7086174757
 H         -2.9117469450       -2.7094355495        2.6132719740
 H         -0.8893332875       -1.8617624463        3.7477000714
 H          0.6153206371       -0.2921973237        2.5834344525
 H          0.4873816893        1.6175028859        0.7266363477
 C          0.0591745949        1.0679444229       -1.2937286697
 C         -0.9023542889        2.1863048674       -1.5566604848
 C          0.5558045960        2.3678372928       -1.8499996574
 H          0.8770837218        2.3993221460       -2.8804071067
 H          1.1370361657        2.9970011034       -1.1917579321
 H         -1.5822051504        2.0892197232       -2.3892666925
 H         -1.3183028366        2.6986161984       -0.7025550855
 H          0.0438703371        0.2124921731       -1.9607229604
