  62
        -98.94035594
 C         -2.4252020130       -1.1613616121        0.0997630680
 C         -3.3318252001       -0.4687188349        0.9419122181
 C         -4.1916492525        0.5251389381        0.2903820871
 C         -4.0709741363        0.7453723294       -1.0312945764
 C         -4.8958547683        1.7016935476       -1.8493199457
 C         -4.3911970438        3.1507387021       -1.8162524703
 C         -4.6287651007        3.8920964081       -0.5000509838
 H         -4.4276778494        4.9489541893       -0.6860439068
 H         -5.6787904391        3.8051904800       -0.2192645227
 C         -3.7432634449        3.4188484627        0.6613310674
 H         -2.9001298317        2.8466456659        0.2664214953
 H         -3.3257073440        4.2856712390        1.1788622112
 C         -4.4688134861        2.5730169856        1.7080485360
 H         -5.2301028695        3.1787606960        2.2045315190
 H         -3.7416188916        2.2627379391        2.4632156609
 C         -5.1375725559        1.3107967314        1.1477042751
 H         -5.4304461437        0.6769084934        1.9883470570
 H         -6.0305405305        1.5777393345        0.5828108859
 H         -3.3238894012        3.1544580838       -2.0493749343
 H         -4.9069380288        3.6932444744       -2.6118007074
 H         -4.8511847743        1.3456609645       -2.8807604250
 H         -5.9330464709        1.6686113765       -1.5145044009
 O         -3.1640855717        0.0878292698       -1.7993169193
 C         -2.3028690682       -0.8606927472       -1.2580382702
 O         -1.5034443055       -1.3390931119       -2.0821958444
 H         -0.1348343116        0.0407615507        1.0570767477
 C          0.4748389486       -0.7208277915        0.5841274768
 C         -0.0849832268       -1.9671342850        0.3268263048
 C          0.7077688967       -2.9346770578       -0.2745733652
 C          2.0190810497       -2.6520340469       -0.6164149462
 C          2.5663618350       -1.4070355682       -0.3705360366
 C          1.7838026438       -0.4311905628        0.2335427944
 N          2.3268068773        0.8447766898        0.4710565139
 S          3.7852013969        0.9405116702        1.2986848788
 O          3.9456519708       -0.1650922873        2.2149734287
 O          3.8005109543        2.2645545025        1.8819683597
 C          5.0181900196        0.8561395963        0.0176210781
 C          6.0084771293       -0.1046957801        0.0784935110
 C          6.9638418003       -0.1463663789       -0.9251279217
 C          6.9128557949        0.7693786756       -1.9648578836
 C          5.9133967145        1.7301533806       -2.0094058734
 C          4.9558776113        1.7779775869       -1.0089161884
 H          4.1651081726        2.5096064331       -1.0051075572
 H          5.8765648724        2.4401626770       -2.8199034906
 H          7.6562128116        0.7344491200       -2.7455529258
 H          7.7420910548       -0.8917355934       -0.8919097550
 H          6.0041225225       -0.7994432700        0.9031562628
 H          1.6628236180        1.5029305628        0.8525166840
 H          3.5843410699       -1.1822774366       -0.6436812419
 H          2.6218382041       -3.4123006065       -1.0892726400
 H          0.2945946108       -3.9049665778       -0.4946122756
 C         -1.5173221945       -2.1938000318        0.7428194725
 H         -1.5868373072       -1.9783259935        1.8232198468
 C         -1.9797141000       -3.6322791839        0.5647992052
 C         -3.4243909671       -3.9578134123        0.3337286061
 C         -2.4233480303       -4.1771280512       -0.7586111609
 H         -2.1554396350       -5.1932280272       -1.0090727079
 H         -2.4218118748       -3.5042021779       -1.6012693714
 H         -3.8416276448       -4.8191804225        0.8334907078
 H         -4.1151512816       -3.1326132542        0.2366105949
 H         -1.4354282752       -4.3126797387        1.2128625252
 O         -3.4163684313       -0.6710417116        2.1833237228
