  62
        -98.94412867
 C          2.0544194551       -1.2998411080        0.1223837399
 C          2.4434606415       -0.2487912240        0.9876933272
 C          3.8436205433        0.1878215684        0.8750401527
 C          4.6610900778       -0.4250399767        0.0001890474
 C          6.0900260045       -0.0434826704       -0.2533904139
 C          6.1962381234        0.9811666860       -1.3915636465
 C          5.2423001065        2.1670414550       -1.2465369745
 H          5.4280930798        2.8384991766       -2.0876560911
 H          4.2131412630        1.8124471077       -1.3412412738
 C          5.3903716460        2.9440146002        0.0691400959
 H          6.3535554706        2.7165927562        0.5274954961
 H          5.3818122800        4.0131789150       -0.1532516127
 C          4.2741618590        2.6922851191        1.0847343568
 H          3.3022596866        2.8288700888        0.6030018811
 H          4.3563933161        3.4454740170        1.8730604800
 C          4.2869268629        1.3163702510        1.7628042634
 H          5.2783256122        1.1180817518        2.1750432190
 H          3.5705297703        1.3474627113        2.5889935448
 H          7.2250639691        1.3430590268       -1.4356168469
 H          5.9728348176        0.4762343942       -2.3341963370
 H          6.5196591586        0.3652228609        0.6590571821
 H          6.6417876774       -0.9424240194       -0.5333351968
 O          4.2567471929       -1.4444309552       -0.7993823646
 C          2.9467985823       -1.8898405660       -0.7761982217
 O          2.7022615940       -2.8070771835       -1.5849141414
 H         -0.9544176800       -0.0085430020        1.4399470471
 C         -1.0052500445        0.1080144424        0.3692968343
 C         -0.2653843533       -0.7286878070       -0.4513145313
 C         -0.3297371207       -0.5390365001       -1.8288503048
 C         -1.1142426871        0.4627086099       -2.3695590323
 C         -1.8488934615        1.2991718049       -1.5469850744
 C         -1.7833154260        1.1226298820       -0.1718832214
 N         -2.5436722366        1.9622816572        0.6665867316
 S         -4.1921450722        1.9780218510        0.3662373853
 O         -4.4694892569        2.8482530124       -0.7488541887
 O         -4.8145850355        2.3380963846        1.6206089020
 C         -4.5720957547        0.2901071197       -0.0701645484
 C         -4.4564258688       -0.6748642205        0.9108803206
 C         -4.6729872521       -2.0010676844        0.5757290982
 C         -4.9943299875       -2.3386075379       -0.7302014533
 C         -5.1091526928       -1.3580398820       -1.7029913395
 C         -4.8928263543       -0.0294989301       -1.3734035293
 H         -4.9686962032        0.7634890139       -2.0991131198
 H         -5.3603941144       -1.6240214220       -2.7170960283
 H         -5.1562708590       -3.3729445110       -0.9898734248
 H         -4.5846237164       -2.7663556628        1.3300924035
 H         -4.2107048421       -0.3762036802        1.9173426223
 H         -2.3602914709        1.8141304668        1.6485980747
 H         -2.4688035022        2.0856229747       -1.9464521097
 H         -1.1551796053        0.5948280254       -3.4400640506
 H          0.2519097575       -1.1870029655       -2.4701000577
 C          0.6238551395       -1.8152159351        0.1015669093
 H          0.6180317889       -2.6507313895       -0.6107195274
 C          0.1822441753       -2.3272340640        1.4572241691
 C         -1.0901014130       -3.1127376120        1.5596195927
 C          0.2309546426       -3.7975964158        1.7371638663
 H          0.5153988677       -4.1235833493        2.7265317813
 H          0.5833231742       -4.4451399713        0.9476689929
 H         -1.7141623907       -2.9711342587        2.4287152938
 H         -1.6377255407       -3.2907442258        0.6465294253
 H          0.4350628475       -1.6604448751        2.2720892971
 O          1.6739759839        0.3007625734        1.8190326911
