  62
        -98.93417259
 C         -2.4120200292       -0.9971948430        0.0580639087
 C         -3.6621704543       -0.9599284080        0.7248175502
 C         -4.7052635927       -0.1012104344        0.1378671557
 C         -4.4166595940        0.6090117912       -0.9659662122
 C         -5.3062767763        1.5818220962       -1.6894054755
 C         -5.0673274491        3.0153121783       -1.1854895379
 C         -5.8984147357        3.4176924357        0.0322614771
 H         -5.5399168012        4.3958161505        0.3610827721
 H         -6.9416830174        3.5354540607       -0.2682346032
 C         -5.8374300555        2.4488644284        1.2160535880
 H         -4.8079614978        2.1200797805        1.3699279336
 H         -6.1388136413        2.9953867224        2.1118436638
 C         -6.7557994980        1.2295166781        1.0460231128
 H         -7.4360788314        1.4089280372        0.2136582254
 H         -7.3787297717        1.1191216415        1.9361318601
 C         -6.0339327582       -0.1107686127        0.8434610020
 H         -5.8252500680       -0.5621528411        1.8186242418
 H         -6.7032363212       -0.8005308270        0.3180414338
 H         -5.2939065107        3.7130023293       -1.9942700331
 H         -4.0034671270        3.1160232368       -0.9555529290
 H         -6.3497726678        1.2980330246       -1.5900289190
 H         -5.0269563821        1.5333296285       -2.7439925910
 O         -3.1942605996        0.5677053264       -1.5606645798
 C         -2.1613505132       -0.2208859164       -1.0744886776
 O         -1.1114093757       -0.1325144330       -1.7361217488
 O         -3.8964129673       -1.6138740579        1.7767961492
 C         -1.3264650600       -1.8713689611        0.6610984599
 C         -0.0438342107       -1.0916804603        0.7959638070
 C          0.0486609240       -0.1102424125        1.7787306852
 C          1.2017867671        0.6366290515        1.9258021393
 C          2.2862395386        0.4249655251        1.0925244444
 C          2.2040446699       -0.5495348593        0.1078300385
 C          1.0477699454       -1.3071060679       -0.0295039120
 H          0.9892850928       -2.0483837497       -0.8114843861
 N          3.2916556933       -0.7523897244       -0.7559068050
 S          4.8303994482       -0.9003649733       -0.1137464483
 O          5.5807963434       -1.6537253471       -1.0949555703
 O          4.7955562136       -1.4468380841        1.2233765902
 C          5.4450011582        0.7703253827       -0.0739340156
 C          5.4174080871        1.5020861024       -1.2448418265
 C          5.9035032762        2.7996177281       -1.2344554909
 C          6.4083905150        3.3396894245       -0.0609190301
 C          6.4313406454        2.5912826296        1.1058462391
 C          5.9460559714        1.2927081964        1.1021912388
 H          5.9391175095        0.6753997852        1.9864592770
 H          6.8238078803        3.0132731670        2.0170812434
 H          6.7856844394        4.3501476881       -0.0560616251
 H          5.8860610129        3.3850067541       -2.1397097843
 H          5.0186277374        1.0464105871       -2.1358625645
 H          3.1207309020       -1.4312407703       -1.4826209341
 H          3.1874955727        1.0067968473        1.1970390087
 H          1.2574360966        1.3940979635        2.6929437454
 H         -0.8013324941        0.0623921852        2.4249632648
 H         -1.6930875176       -2.0957133832        1.6764118200
 C         -1.1396074143       -3.2130992458       -0.0314573137
 C         -2.3160201371       -3.9513678438       -0.5945291131
 C         -1.2711647824       -3.3955999700       -1.5127539916
 H         -0.6012156827       -4.0880447025       -2.0023432937
 H         -1.5136996384       -2.5301167412       -2.1089861249
 H         -2.3674700474       -5.0209403664       -0.4573183921
 H         -3.2764524854       -3.4583812487       -0.5563814827
 H         -0.3851892879       -3.8167211727        0.4654939128
