  62
        -98.94190391
 C          1.1578649348        1.4105310057        0.5018532703
 C          2.1504337305        1.1891364947       -0.4783202376
 C          3.2746531821        0.3083708525       -0.1002684150
 C          3.2762424884       -0.2540318061        1.1226170193
 C          4.2792905885       -1.2119585612        1.7091667806
 C          4.1230320256       -2.6378137669        1.1586465098
 C          3.9482470844       -2.7247898632       -0.3550985104
 H          3.7586722658       -3.7720955049       -0.6060761401
 H          3.0574505518       -2.1631571814       -0.6443411730
 C          5.1448004083       -2.2530943276       -1.1785560677
 H          6.0237473185       -2.8378036811       -0.8981718290
 H          4.9205945853       -2.4717882738       -2.2256990204
 C          5.4915143620       -0.7661692819       -1.0692563159
 H          6.1693392384       -0.5298395814       -1.8946263162
 H          6.0361542770       -0.5547375861       -0.1529282952
 C          4.2994485054        0.1761153885       -1.2011145819
 H          4.6751445023        1.1917848807       -1.3746656508
 H          3.7369884689       -0.0803594184       -2.1063255818
 H          4.9932057110       -3.2226797708        1.4624081011
 H          3.2369146493       -3.0836452783        1.6183709960
 H          5.2885443496       -0.8443202434        1.5497459586
 H          4.0982148018       -1.2349277512        2.7862104190
 O          2.2753604494       -0.0387183707        2.0246372679
 C          1.1952687895        0.7712925438        1.7394745056
 O          0.3459299277        0.8465361515        2.6524096393
 H         -0.5540254610       -0.2963395547       -0.1637647754
 C         -1.0394439346        0.3021793385       -0.9191627585
 C         -0.8557556294        1.6777566237       -0.9253988758
 C         -1.4656407710        2.4214204591       -1.9277930113
 C         -2.2263588173        1.7923415332       -2.8986366440
 C         -2.4200932834        0.4228182929       -2.8774520002
 C         -1.8190571020       -0.3286401107       -1.8741624769
 N         -1.9907445607       -1.7194800248       -1.7959061988
 S         -2.1320517019       -2.4314760543       -0.2871172104
 O         -0.8422392855       -2.5281684058        0.3492221363
 O         -2.7973464969       -3.6901231408       -0.5515152159
 C         -3.2269995980       -1.3530107731        0.6194153469
 C         -2.7588349158       -0.5492140453        1.6381489252
 C         -3.6446366398        0.3112389056        2.2693685506
 C         -4.9725814541        0.3536108026        1.8762863473
 C         -5.4298162021       -0.4677509805        0.8564041981
 C         -4.5501616768       -1.3266609443        0.2199103670
 H         -4.8680621394       -1.9893184058       -0.5686031158
 H         -6.4645638495       -0.4381062663        0.5555707323
 H         -5.6539594699        1.0281450274        2.3702748593
 H         -3.2793712285        0.9450197861        3.0619749153
 H         -1.7205988845       -0.5901924210        1.9302695955
 H         -2.6476321616       -2.1062042637       -2.4575474928
 H         -3.0204134190       -0.0631770429       -3.6309886941
 H         -2.6850119292        2.3798375102       -3.6792660999
 H         -1.3390768901        3.4912380655       -1.9535124154
 C         -0.0402147278        2.2871205763        0.1903042051
 H         -0.6645409998        2.2756918229        1.0970055015
 C          0.3931618121        3.7120041845       -0.0842197326
 C         -0.5032557438        4.8572034298        0.2766247023
 C          0.7371308950        4.5962830379        1.0755343594
 H          1.5706313176        5.2753682192        0.9771248009
 H          0.6319072926        4.1769362988        2.0659207738
 H         -0.5202392534        5.7219389048       -0.3694466654
 H         -1.4544158910        4.6247911006        0.7311479396
 H          1.0033263960        3.7958429797       -0.9757508111
 O          2.1088148251        1.6982066236       -1.6297590428
