  62
        -98.94040228
 C         -1.5670818205       -1.1598506509        0.0561543190
 C         -2.6479714705       -0.9486089520        0.9459407192
 C         -3.4082107809        0.3010800779        0.7750559803
 C         -3.0147063413        1.1796062688       -0.1631444189
 C         -3.6621770217        2.4891468189       -0.5190073578
 C         -4.6524836516        2.3069221196       -1.6817710679
 C         -6.0676502915        1.9071672788       -1.2661062583
 H         -6.5556439318        2.7593209782       -0.7882986075
 H         -6.6233665514        1.6823848394       -2.1794645184
 C         -6.1587102411        0.7019639879       -0.3262769093
 H         -5.4708615708       -0.0775799516       -0.6589663100
 H         -7.1686898310        0.2943022977       -0.4024127597
 C         -5.8765280112        1.0580780767        1.1410694110
 H         -5.8886885416        2.1421295266        1.2527281520
 H         -6.6847029811        0.6743170159        1.7672035307
 C         -4.5677008910        0.4939212966        1.7138440705
 H         -4.2415964312        1.1250552660        2.5471748410
 H         -4.7530470007       -0.5003053738        2.1324151196
 H         -4.2409463114        1.5530448104       -2.3578699986
 H         -4.7164416020        3.2440482001       -2.2385059571
 H         -4.1491005218        2.9265969880        0.3473058726
 H         -2.8623983219        3.1561031595       -0.8472958372
 O         -1.9532615412        0.9488188599       -0.9826888792
 C         -1.2160140308       -0.2218832999       -0.9141433602
 O         -0.3010830908       -0.2934121988       -1.7561616303
 H          1.5550408398       -2.0650987087       -1.2464478919
 C          1.6819040798       -1.8194589196       -0.2044361817
 C          0.6308015198       -1.9929982007        0.6814524782
 C          0.8208523297       -1.6481040018        2.0172518185
 C          2.0314899496       -1.1423081818        2.4518303789
 C          3.0709989295       -0.9441942207        1.5588889991
 C          2.8851479596       -1.2748842595        0.2236687788
 N          3.9134864295       -1.0223826784       -0.7023262410
 S          4.6497983090        0.4780958118       -0.6127340597
 O          5.0639025789        0.7844897031       -1.9647136094
 O          5.7122984890        0.4283868713        0.3626835703
 C          3.4010294086        1.6326111709       -0.0631014786
 C          2.1755700986        1.6590375010       -0.6982467786
 C          1.2175275483        2.5616353903       -0.2652643578
 C          1.4982833280        3.4239863195        0.7826361930
 C          2.7368752980        3.3905814594        1.4046924729
 C          3.6967332783        2.4857308401        0.9815635621
 H          4.6681044784        2.4181708500        1.4442292220
 H          2.9546614378        4.0624328387        2.2192738935
 H          0.7467022778        4.1226035090        1.1155110236
 H          0.2528184383        2.5683364804       -0.7484264878
 H          1.9518189588        0.9769784917       -1.5032086692
 H          3.6520923395       -1.2317617676       -1.6552479312
 H          4.0165784894       -0.5327036306        1.8735733394
 H          2.1655622895       -0.8860098027        3.4915840392
 H         -0.0021610302       -1.7676780527        2.7078881384
 C         -0.7377968900       -2.4238913407        0.2181566078
 H         -1.2181897498       -2.9897028516        1.0270632473
 C         -0.7324170098       -3.2705986496       -1.0365003029
 C         -0.2425235693       -4.6852463295       -0.9654932842
 C         -1.7019043494       -4.4061130098       -1.1590125439
 H         -2.1421280793       -4.6050061591       -2.1247371341
 H         -2.3712312993       -4.5839088408       -0.3301734941
 H          0.0809579608       -5.0512731803       -0.0028963645
 H          0.3209159008       -5.0798346686       -1.7973056345
 H         -0.5218847700       -2.7058148588       -1.9367271524
 O         -2.9694027202       -1.7736354129        1.8423995884
