  62
        -98.93501863
 C         -0.5837252619       -1.6401720523       -0.6682187981
 C         -1.6472330686       -1.9161641236        0.2262741287
 C         -2.8144020953       -1.0174293290        0.1896898378
 C         -2.8052951252        0.0180399828       -0.6683301665
 C         -3.8807301259        1.0457469701       -0.9102527813
 C         -4.5055059065        1.6792279823        0.3424967964
 C         -5.9588979257        1.2603823802        0.5695598991
 H         -6.4518224212        2.0206777939        1.1795868643
 H         -6.4695082074        1.2364547564       -0.3954154956
 C         -6.1442385586       -0.0836673121        1.2720265641
 H         -5.8606054619        0.0156876746        2.3220535823
 H         -7.2095407509       -0.3252877898        1.2459546414
 C         -5.3629411593       -1.2554226603        0.6725922378
 H         -5.3866468467       -1.2169985103       -0.4156398972
 H         -5.8695724375       -2.1768709872        0.9680961172
 C         -3.9111372656       -1.3467176797        1.1658026313
 H         -3.7821013281       -0.7260810809        2.0575772862
 H         -3.6963321456       -2.3721869068        1.4827069483
 H         -3.9021614389        1.4395465183        1.2165487082
 H         -4.4849653681        2.7629504196        0.2196308809
 H         -3.4081398150        1.8124942533       -1.5264108229
 H         -4.6621565900        0.5908478501       -1.5234525430
 O         -1.7565982378        0.2562920441       -1.5030110814
 C         -0.6201069710       -0.5410356125       -1.5266569339
 O          0.2358867861       -0.1570005830       -2.3428545518
 H          1.5158630065       -0.0790343704       -0.1231155691
 C          1.9303849796       -0.7936189945        0.5708898425
 C          1.5734612783       -2.1303076576        0.4690624049
 C          2.1149070455       -3.0390946017        1.3707814138
 C          3.0023928583       -2.6170084837        2.3446624635
 C          3.3701876073       -1.2866044722        2.4317785124
 C          2.8272437647       -0.3680857077        1.5397042328
 N          3.1454173846        0.9924622365        1.6264229139
 S          3.1734102469        1.9489004618        0.2546871702
 O          3.7157848289        1.2357562003       -0.8772266774
 O          3.9153774815        3.1247480382        0.6643027014
 C          1.4813753937        2.4266645803       -0.0141961207
 C          0.6665789497        2.6387952965        1.0805118416
 C         -0.6253062776        3.0928501914        0.8733889493
 C         -1.0729012157        3.3378976702       -0.4155219190
 C         -0.2447967722        3.1144386871       -1.5031776340
 C          1.0467377897        2.6533262210       -1.3039147734
 H          1.7131750929        2.4455631564       -2.1256330569
 H         -0.5982921954        3.2854308163       -2.5073466110
 H         -2.0753138907        3.7038347726       -0.5718478914
 H         -1.2783502581        3.2568735980        1.7156467224
 H          1.0485273790        2.4406623650        2.0684623202
 H          3.8715773065        1.2333148834        2.2845542837
 H          4.0656798712       -0.9558208276        3.1878438298
 H          3.4158302900       -3.3307679524        3.0408286644
 H          1.8249374458       -4.0778116961        1.3127081850
 C          0.6087554505       -2.5770235330       -0.5997594930
 H          0.1936536875       -3.5464220134       -0.2787010313
 C          1.2921041935       -2.8027691640       -1.9397592652
 C          2.5621325112       -2.1255306878       -2.3483119713
 C          2.5695531839       -3.5861621923       -2.0168954647
 H          2.6918315509       -4.2974295176       -2.8197801124
 H          3.0306027111       -3.8835770568       -1.0871435581
 H          2.6534877933       -1.8239338412       -3.3808598253
 H          3.0235245046       -1.4284677765       -1.6651890990
 H          0.5694241142       -2.9727738728       -2.7320517698
 O         -1.6262320924       -2.8946684240        1.0221416161
