  62
        -98.93726822
 C         -2.4837904769       -1.1215258037       -0.0643236693
 C         -3.5923164565       -0.8534383716        0.7735918598
 C         -4.6136978287        0.0643837356        0.2412733898
 C         -4.4407202812        0.5912492751       -0.9834517571
 C         -5.3227098159        1.5874232291       -1.6840087167
 C         -4.8295517488        3.0221082866       -1.4297018186
 C         -5.3804182264        3.6776700421       -0.1639316395
 H         -4.8566282628        4.6277410762       -0.0360815653
 H         -6.4388181012        3.9042051237       -0.3088808205
 C         -5.2276657032        2.8559673986        1.1187526731
 H         -4.2337504544        2.4057511051        1.1512601724
 H         -5.2992784778        3.5411815363        1.9656707531
 C         -6.3006137398        1.7672501078        1.2693567244
 H         -7.0920922750        1.9440875531        0.5412944654
 H         -6.7632917218        1.8497699483        2.2550295008
 C         -5.7926526508        0.3235180799        1.1393106353
 H         -5.4763618661       -0.0403307539        2.1219203141
 H         -6.6206872970       -0.3187448022        0.8212293299
 H         -5.1093419027        3.6447770511       -2.2818832142
 H         -3.7375640064        2.9979976146       -1.3870082498
 H         -6.3581605288        1.4671582578       -1.3797864768
 H         -5.2425810833        1.3764726758       -2.7523993652
 O         -3.3568963125        0.3085985017       -1.7567026371
 C         -2.3529658624       -0.5417702076       -1.3258212895
 O         -1.4292880015       -0.6967308777       -2.1470868544
 O         -3.7213868960       -1.3563727593        1.9223097543
 C         -1.3962819735       -2.0485996599        0.4521279715
 C         -0.1372798696       -1.2440336805        0.6603006708
 C         -0.0552615868       -0.3989930642        1.7642958124
 C          1.0652908489        0.3810741819        1.9756530849
 C          2.1258279440        0.3424429778        1.0865580808
 C          2.0531603660       -0.4939552082       -0.0182993372
 C          0.9308491674       -1.2877103908       -0.2210859125
 H          0.8854326996       -1.9256200410       -1.0897398685
 N          3.1165717199       -0.5204523267       -0.9360261621
 S          4.6733589367       -0.7461397631       -0.3557479536
 O          5.4123637106       -1.3187025745       -1.4598670935
 O          4.6733611281       -1.5004306930        0.8764391502
 C          5.2669570980        0.9061097728       -0.0585031788
 C          5.7416274122        1.2534836934        1.1910485919
 C          6.2096322227        2.5422259256        1.3958751046
 C          6.1957890407        3.4552759444        0.3526839456
 C          5.7177878462        3.0899103052       -0.8971161855
 C          5.2494864316        1.8030476168       -1.1085830158
 H          4.8728813240        1.4791746703       -2.0646112039
 H          5.7081736096        3.8028076039       -1.7058962296
 H          6.5597764026        4.4576648562        0.5141785948
 H          6.5819113384        2.8282134986        2.3665056099
 H          5.7288266068        0.5114038556        1.9734472530
 H          2.9400869134       -1.0969104639       -1.7457188465
 H          3.0014887494        0.9516342284        1.2407563378
 H          1.1144496212        1.0285812500        2.8379352981
 H         -0.8885292531       -0.3611355087        2.4524659258
 H         -1.7479526283       -2.3883666408        1.4359947213
 C         -1.2158895349       -3.2564979948       -0.4424856027
 C         -0.4597506592       -4.4447446092        0.0701096601
 C         -1.9444331844       -4.5242197997       -0.1168454491
 H         -2.3308478902       -5.1193958324       -0.9306157069
 H         -2.5713748198       -4.5281712126        0.7626300452
 H          0.1752813420       -4.9882404443       -0.6131746729
 H         -0.0752823919       -4.3928953324        1.0776770073
 H         -1.1128116069       -3.0018100654       -1.4906892338
