  62
        -98.94182663
 C          2.3800792521        1.0776620292        0.1361178344
 C          3.6341970689        0.9271606648        0.7859131597
 C          4.6025313849        0.0379252205        0.1367953755
 C          4.2679422679       -0.5898931978       -1.0045232852
 C          5.1508966725       -1.5123161496       -1.8004268008
 C          5.1558709460       -2.9615679863       -1.2951163854
 C          5.9067322982       -3.1899792390        0.0173825310
 H          6.0171806147       -4.2693869903        0.1385363058
 H          6.9087725469       -2.7670140900       -0.0606077710
 C          5.2014046028       -2.6239036237        1.2578588743
 H          4.1532556194       -2.4251777067        1.0214784469
 H          5.2123971254       -3.3702870919        2.0553688425
 C          5.8329292574       -1.3504835233        1.8205728905
 H          5.2332846386       -1.0178046355        2.6715428857
 H          6.8394597012       -1.5703110744        2.1830825943
 C          5.9173608637       -0.1911107679        0.8192237938
 H          6.6982493929       -0.3847117642        0.0841149768
 H          6.1702981137        0.7186961956        1.3690580717
 H          4.1215702601       -3.2970419898       -1.1873143972
 H          5.6243531669       -3.5743402744       -2.0688498306
 H          6.1703444918       -1.1253723412       -1.8104227294
 H          4.7658374508       -1.5059579419       -2.8225110110
 O          3.0528285483       -0.4340037545       -1.5906499412
 C          2.0719562238        0.3816630949       -1.0345282353
 O          1.0112552604        0.3913783515       -1.6875530993
 O          3.9309274943        1.5132608613        1.8601895434
 C          1.3591676943        1.9777245662        0.8121143103
 C          0.0542384641        1.2421584498        0.9719001560
 C         -0.0876417255        0.3168489716        2.0017367942
 C         -1.2560113393       -0.4078793234        2.1422776207
 C         -2.3021692331       -0.2337190411        1.2528228200
 C         -2.1610696750        0.6705080712        0.2093078333
 C         -0.9966548476        1.4175855188        0.0866182643
 H         -0.8921177888        2.1093854121       -0.7346044495
 N         -3.2097799294        0.8490322085       -0.7071998900
 S         -4.0351538474       -0.4933340847       -1.2812022935
 O         -3.2150826850       -1.6821857190       -1.2910174267
 O         -4.5850697723       -0.0780133416       -2.5536742584
 C         -5.3717844196       -0.6840519042       -0.1171623118
 C         -5.5954941777       -1.9082122526        0.4816808275
 C         -6.6482745531       -2.0363834560        1.3745822872
 C         -7.4555646266       -0.9437941760        1.6507563472
 C         -7.2198100748        0.2783857939        1.0388793382
 C         -6.1699958869        0.4124193160        0.1445851267
 H         -5.9557729982        1.3426743298       -0.3542821235
 H         -7.8501505649        1.1257610429        1.2556360768
 H         -8.2734389316       -1.0456748946        2.3464490557
 H         -6.8330195141       -2.9862664639        1.8501444134
 H         -4.9388019535       -2.7291439607        0.2401899188
 H         -2.9765051698        1.4740506056       -1.4653814448
 H         -3.2099639248       -0.8068646457        1.3467145383
 H         -1.3542698373       -1.1188025805        2.9486460722
 H          0.7357870256        0.1659110079        2.6863097139
 H          1.7781393951        2.1509231789        1.8165564795
 C          1.1938517522        3.3490947511        0.1742425721
 C          2.3858505381        4.0892494502       -0.3526816901
 C          1.3306441478        3.5996059722       -1.2964381043
 H          0.6740461047        4.3278210953       -1.7507819409
 H          1.5573883018        2.7618198472       -1.9369201419
 H          2.4608216403        5.1498485521       -0.1663646314
 H          3.3348482909        3.5731710058       -0.3387360338
 H          0.4493429969        3.9428279866        0.6963867290
