  62
        -98.93521869
 C         -2.3705335894       -1.4083973299       -0.0310254997
 C         -3.1120614995       -0.7313616296        0.9687819501
 C         -3.9934547594        0.3707302204        0.5392047298
 C         -4.0492618692        0.6762754001       -0.7700361403
 C         -4.8404410791        1.7641536400       -1.4469660806
 C         -4.2261894090        3.1579415400       -1.2456615109
 C         -3.7864687191        3.4637413203        0.1835575491
 H         -3.0430499892        2.7273415703        0.4957650893
 H         -3.2886815390        4.4372302102        0.1757937689
 C         -4.9131105292        3.5216840206        1.2128238090
 H         -5.6420793791        4.2735307306        0.9027071187
 H         -4.4713027493        3.8561531208        2.1548905189
 C         -5.6499406093        2.2061284407        1.4768686692
 H         -6.3733348493        1.9944751006        0.6939738692
 H         -6.2211703294        2.3342630510        2.4007856391
 C         -4.7403749994        1.0005354507        1.6899865896
 H         -3.9836523995        1.2488580208        2.4430758696
 H         -5.3310702095        0.1901143708        2.1335788497
 H         -4.9513731589        3.9046863800       -1.5737494811
 H         -3.3455124289        3.2371776498       -1.8883504408
 H         -5.8713604391        1.7443603101       -1.1063338707
 H         -4.8375639890        1.5343532297       -2.5148716906
 O         -3.3117588492        0.0049609598       -1.6988217101
 C         -2.4548782593       -1.0327731702       -1.3709351498
 O         -1.8534137892       -1.5106934104       -2.3525177296
 O         -3.0472351696       -1.0400179493        2.1894491302
 C         -1.4769045996       -2.5449943598        0.4357822307
 C         -0.0742957796       -2.0501051399        0.6794925007
 C          0.5519902903       -2.2363689097        1.9056964708
 C          1.8293817403       -1.7496741897        2.1247207708
 C          2.5067909005       -1.0710311600        1.1276418407
 C          1.8872068606       -0.8749363202       -0.0998454994
 C          0.6081694406       -1.3642853402       -0.3167028994
 H          0.1291585307       -1.2069213503       -1.2725285595
 N          2.5683356108       -0.1823658505       -1.1214932495
 S          3.0475422108        1.3904139496       -0.7617196298
 O          2.1826910708        1.9893235098        0.2297771900
 O          3.1334660410        2.0681058393       -2.0368682899
 C          4.6883329908        1.1870474396       -0.1007053896
 C          4.9742806007        1.6150764499        1.1808865303
 C          6.2589091906        1.4432264999        1.6731551605
 C          7.2288195006        0.8504509596        0.8792176007
 C          6.9260226407        0.4293075693       -0.4073051892
 C          5.6443041008        0.5988898693       -0.9058073294
 H          5.3673123209        0.2907925191       -1.9001669793
 H          7.6830953608       -0.0304265208       -1.0218696490
 H          8.2269963906        0.7165698596        1.2652024909
 H          6.4962233505        1.7709194901        2.6725420705
 H          4.1856503806        2.0652398500        1.7625710602
 H          2.0659625308       -0.1912789507       -1.9988091995
 H          3.5009850105       -0.6888783600        1.2921735707
 H          2.3024969702       -1.8993005595        3.0830641109
 H          0.0229617902       -2.7499516094        2.6950264709
 H         -1.8952681097       -2.8409321796        1.4107366307
 C         -1.5367671896       -3.7652791000       -0.4731888291
 C         -0.3864523795       -4.2475900903       -1.3004614988
 C         -0.8067621397       -5.0180355900       -0.0873192787
 H         -1.3015311698       -5.9681758700       -0.2187486785
 H         -0.1653599898       -4.9672963899        0.7796614213
 H         -0.6103722095       -4.6477313805       -2.2776240988
 H          0.5415228605       -3.6996079104       -1.2596215889
 H         -2.5224694095       -3.8922123201       -0.9097471291
