  62
        -98.93770857
 C         -2.3515372521       -1.2239800936        0.2532938769
 C         -2.3536009754        0.0496415576       -0.3631483279
 C         -3.3021634789        1.0374240450        0.1830673826
 C         -4.0901585611        0.7006056070        1.2178711806
 C         -5.0949952226        1.5520940074        1.9528912285
 C         -6.0052071826        2.4599259067        1.1143425322
 C         -6.3833243304        1.9045613580       -0.2665497469
 H         -6.0987903626        0.8534935906       -0.3381209798
 H         -7.4670022489        1.9580909304       -0.3856080863
 C         -5.7459925862        2.6848598344       -1.4188484192
 H         -6.3194897876        2.4977713277       -2.3298774127
 H         -5.8179857752        3.7526910189       -1.2010814939
 C         -4.2895869494        2.3344574085       -1.7217759569
 H         -4.2323835546        1.3349302506       -2.1611932279
 H         -3.9232290378        3.0363235480       -2.4750021529
 C         -3.3372674967        2.3666461157       -0.5150732182
 H         -2.3233520907        2.5387057908       -0.8879262153
 H         -3.5931711158        3.1729590880        0.1681103959
 H         -6.9107003418        2.6250936488        1.7006035201
 H         -5.5324521009        3.4329248526        0.9878453509
 H         -5.7054192498        0.8440788561        2.5185958072
 H         -4.5531414471        2.1629028433        2.6809707713
 O         -4.0460103244       -0.5360139816        1.7895896997
 C         -3.1830705733       -1.5158183633        1.3362095353
 O         -3.2514516681       -2.5904268684        1.9653439327
 O         -1.6052045132        0.3650934996       -1.3258502101
 C         -1.4026384554       -2.3251098578       -0.1958008075
 C         -0.0027029395       -1.9060488594        0.1813149772
 C          0.4379276310       -2.1129914604        1.4856950245
 C          1.6841572029       -1.6711944833        1.8876570448
 C          2.5118632685       -1.0021425084        1.0022052117
 C          2.0737920035       -0.7753959752       -0.2947854116
 C          0.8323892370       -1.2442929169       -0.7047063613
 H          0.5002786118       -1.0498257645       -1.7119992639
 N          2.8997828518       -0.0769278598       -1.1939444439
 S          3.5479057065        1.3847655822       -0.6770759249
 O          2.7196288645        2.0179675395        0.3231177030
 O          3.7922523901        2.1408143190       -1.8864009464
 C          5.1145849269        0.9197865852        0.0333093325
 C          5.4229523397        1.2949934447        1.3261915383
 C          6.6508799160        0.9297264256        1.8559491892
 C          7.5446391573        0.2003956219        1.0869865433
 C          7.2213940415       -0.1657119281       -0.2112013330
 C          5.9960261164        0.1971073855       -0.7468192729
 H          5.7079496168       -0.0638959521       -1.7513137047
 H          7.9192316321       -0.7325501462       -0.8061485147
 H          8.4987297374       -0.0837718259        1.5020184440
 H          6.9036551362        1.2145583521        2.8646912867
 H          4.6940090143        1.8570297890        1.8883846913
 H          2.4844854014        0.0321173605       -2.1086992838
 H          3.4792910126       -0.6422537825        1.3121763134
 H          2.0139091442       -1.8432382723        2.9010199105
 H         -0.2201848996       -2.6114047357        2.1842007932
 H         -1.6656746224       -3.2084490453        0.4009176266
 C         -1.5736297602       -2.6609606571       -1.6623318609
 C         -0.9861609321       -3.9322861222       -2.1948886634
 C         -2.4714019104       -3.7953329269       -2.0511543901
 H         -3.0702607197       -3.6949256648       -2.9440438722
 H         -2.9616172360       -4.3390743510       -1.2567320988
 H         -0.5636106289       -3.9296614818       -3.1879947512
 H         -0.4663245818       -4.5701032370       -1.4962320069
 H         -1.5726732386       -1.7912806913       -2.3073539146
