  62
        -98.93820732
 C          2.6750617323        1.2091926489        0.2354032533
 C          3.0586095076        0.2581216415        1.2159529782
 C          4.2477802461       -0.5485023878        0.9177216884
 C          4.9084071841       -0.3373986997       -0.2350500297
 C          6.1044078574       -1.1186162076       -0.6948017053
 C          5.6852548713       -2.3258692345       -1.5453619170
 C          4.5829856939       -3.1749581015       -0.9120471236
 H          3.6637826235       -2.5866297745       -0.8615415653
 H          4.3909459874       -4.0130239644       -1.5854870223
 C          4.9186588668       -3.7101078237        0.4870724894
 H          4.6331822765       -4.7629656655        0.5370131929
 H          5.9949412191       -3.6582131830        0.6554031342
 C          4.1926860895       -2.9976047313        1.6298157738
 H          3.1207388767       -2.9639505990        1.4188665990
 H          4.3289068097       -3.5881555298        2.5397979335
 C          4.6677971799       -1.5714450191        1.9352009131
 H          5.7521086263       -1.5641617777        2.0641146367
 H          4.2071785149       -1.2621475812        2.8780717054
 H          5.3244675586       -1.9609044816       -2.5097305104
 H          6.5666048742       -2.9445000189       -1.7242052999
 H          6.7335497196       -0.4615012697       -1.2975385947
 H          6.6700458984       -1.4508652862        0.1735814750
 O          4.5250226686        0.5929277235       -1.1430846001
 C          3.3928229889        1.3777515671       -0.9497434968
 O          3.1638682874        2.1593926972       -1.8895866986
 O          2.4331374909        0.0993311122        2.2994896671
 C          1.4377245975        2.0327048381        0.5450688919
 C          0.2016207623        1.3580866760        0.0068553911
 C          0.1079550207        0.9789726391       -1.3288624899
 C         -1.0361879345        0.3629230791       -1.8019812885
 C         -2.1026354419        0.1047186024       -0.9578600127
 C         -2.0187888987        0.4754502223        0.3771173680
 C         -0.8707135498        1.1015409347        0.8480366253
 H         -0.8040749289        1.3784379194        1.8917127437
 N         -3.0845989332        0.1953571837        1.2447965186
 S         -4.6530782153        0.5356540172        0.7593034137
 O         -4.6900515093        1.6487045461       -0.1601036648
 O         -5.3992436317        0.6908886320        1.9884492558
 C         -5.1820258072       -0.9547158540       -0.0580809769
 C         -5.0636330188       -2.1498012476        0.6240331920
 C         -5.4806689617       -3.3172543842        0.0050967395
 C         -6.0090841953       -3.2700322769       -1.2764963631
 C         -6.1247804526       -2.0617810925       -1.9464369411
 C         -5.7084202508       -0.8902630920       -1.3332556664
 H         -5.7740568783        0.0707659536       -1.8183313247
 H         -6.5359715909       -2.0271172667       -2.9425519165
 H         -6.3324339143       -4.1805022253       -1.7559261858
 H         -5.3917819046       -4.2588519964        0.5226741508
 H         -4.6500689209       -2.1448434436        1.6187573765
 H         -2.9245308925        0.4733249666        2.2018675770
 H         -2.9937587440       -0.3776674311       -1.3246031642
 H         -1.0979329943        0.0766525019       -2.8410662957
 H          0.9394591319        1.1770735388       -1.9886366384
 H          1.3655069778        2.0178202126        1.6445548630
 C          1.5551749667        3.4907695695        0.1245871612
 C          0.7595446896        4.1091820049       -0.9812923132
 C          0.4469859290        4.4512451514        0.4426633647
 H          0.7002460520        5.4336600311        0.8113018011
 H         -0.4602366713        4.0421612986        0.8629272148
 H          1.2529869372        4.8437102143       -1.5990155946
 H          0.0594658184        3.4904515203       -1.5199036082
 H          2.5671470442        3.8633220871        0.2470320544
