  62
        -98.94013835
 C         -2.0176465400       -0.6988233208        0.9238089204
 C         -2.8693051502       -1.1629143099       -0.1093065198
 C         -4.2632894602       -0.6915614599       -0.0479193592
 C         -4.6477379100        0.1276435393        0.9463066415
 C         -6.0158290099        0.7283401893        1.0856369122
 C         -6.0970500099        2.0916914599        0.3846834534
 C         -5.5538642701        2.0851111611       -1.0443414767
 H         -5.6908180901        3.0905806514       -1.4484208259
 H         -4.4782436602        1.8954119110       -1.0161621670
 C         -6.2249255103        1.0643726619       -1.9741017075
 H         -7.1780702103        0.7471753716       -1.5493286576
 H         -6.4412316204        1.5498419627       -2.9281481570
 C         -5.3729503105       -0.1677437779       -2.2842810886
 H         -5.8444635806       -0.7073451872       -3.1099385490
 H         -4.3831431105        0.1482835323       -2.6229867785
 C         -5.1933975903       -1.1625589089       -1.1306082295
 H         -6.1685116803       -1.4241957092       -0.7150826996
 H         -4.7397545805       -2.0687655486       -1.5425076503
 H         -7.1395727699        2.4151748400        0.3783205738
 H         -5.5204954298        2.8149864294        0.9662215839
 H         -6.7516062300        0.0466423097        0.6634523017
 H         -6.2261660498        0.8630137884        2.1480522824
 O         -3.8043357098        0.5463388485        1.9246961417
 C         -2.4773951498        0.1553124184        1.9300534012
 O         -1.8113754097        0.6190815476        2.8785814515
 O         -2.5076721904       -1.9266110391       -1.0397168305
 C         -0.5469249200       -1.0719704010        1.0184895699
 C          0.2884521599       -0.1137966503        0.2097663006
 C          0.0276643097        0.1071412108       -1.1392734592
 C          0.8049659297        0.9870692414       -1.8699103586
 C          1.8591392098        1.6588580908       -1.2751033682
 C          2.1292287300        1.4425381797        0.0689566016
 C          1.3459350700        0.5604108291        0.8020312210
 H          1.5521086802        0.4078296282        1.8529738408
 N          3.2263943201        2.0998117691        0.6653142920
 S          4.7230352500        1.7240365896        0.0027390115
 O          5.6948146802        2.0759008587        1.0125666916
 O          4.8561124498        2.3847153706       -1.2700442080
 C          4.6558015698       -0.0435977402       -0.2214188900
 C          4.8951065500       -0.8510355712        0.8730116393
 C          4.7473163299       -2.2220483610        0.7398835182
 C          4.3498263097       -2.7582320000       -0.4756021322
 C          4.1148066995       -1.9341012791       -1.5648486215
 C          4.2680775496       -0.5624608692       -1.4403658104
 H          4.0978731796        0.1108774915       -2.2640631398
 H          3.8058253794       -2.3546864683       -2.5081725518
 H          4.2184509796       -3.8239357899       -0.5730085031
 H          4.9322319799       -2.8665294717        1.5843552976
 H          5.2032007001       -0.3951381019        1.8006024596
 H          3.2594410902        1.9861252883        1.6687650919
 H          2.4819789998        2.3404456712       -1.8317621777
 H          0.5893716595        1.1514792422       -2.9148587884
 H         -0.7866045604       -0.4250658388       -1.6067945295
 H         -0.2856639199       -0.9251487219        2.0781562400
 C         -0.2722762202       -2.5323112307        0.6807480087
 C          0.5836740796       -2.9722984998       -0.4657574318
 C          1.0912571098       -3.1037234010        0.9361947380
 H          1.1667687498       -4.0867966214        1.3749904472
 H          1.8635707599       -2.4170903913        1.2501046785
 H          0.2820611995       -3.8618239193       -0.9969341125
 H          1.0267565096       -2.2170664993       -1.0954547813
 H         -1.1174463302       -3.1689232908        0.9189226283
