  62
        -98.94576769
 C          2.3145330107        0.9660102462        0.2767236668
 C          2.1390156747        0.0779193768       -0.8122345526
 C          2.6070255880       -1.2991320111       -0.5952837264
 C          3.1228969428       -1.6407055451        0.5995085677
 C          3.5725833180       -3.0220764629        0.9762844264
 C          2.4256602185       -3.8300793403        1.6000660314
 C          1.1319736137       -3.8009443064        0.7853294134
 H          0.4093606708       -4.4334167476        1.3057752528
 H          0.7304814647       -2.7846588260        0.7863638976
 C          1.2875830596       -4.2803140159       -0.6646266750
 H          0.4679385527       -4.9615411386       -0.9011713873
 H          2.2145484694       -4.8451520705       -0.7693898377
 C          1.2554932063       -3.1600774595       -1.7055735079
 H          0.3792393088       -2.5287087667       -1.5407259984
 H          1.1533349797       -3.6166298067       -2.6932825626
 C          2.4934905494       -2.2565210848       -1.7483404342
 H          3.3952304268       -2.8671639156       -1.8289489681
 H          2.4172181910       -1.6344658532       -2.6447888828
 H          2.7584425073       -4.8626710758        1.7206702420
 H          2.2160746926       -3.4239422875        2.5925759244
 H          3.9491552542       -3.5299947433        0.0905503180
 H          4.3807567839       -2.9343436925        1.7044333357
 O          3.2452411095       -0.7665743382        1.6321792238
 C          2.8488397564        0.5539513775        1.4968550002
 O          3.0116809785        1.2482047803        2.5220912144
 H         -0.0019068948        1.2721258405        1.5979500026
 C         -0.4389540258        1.8234442132        0.7738247219
 C          0.4024586038        2.4961999646       -0.1046567030
 C         -0.1659499056        3.2053370166       -1.1536079296
 C         -1.5411003666        3.2339568473       -1.3135376541
 C         -2.3752305671        2.5699151507       -0.4336805652
 C         -1.8170594919        1.8560000336        0.6203094919
 N         -2.6434805910        1.1993897437        1.5473967240
 S         -3.9646976792        0.3012605002        1.0597905088
 O         -4.9544907331        1.1784113304        0.4874169269
 O         -4.3638711224       -0.4317168429        2.2392641147
 C         -3.3634486568       -0.8300784242       -0.1789640845
 C         -2.8138501398       -2.0249972541        0.2424081746
 C         -2.3295784528       -2.9118706465       -0.7044168112
 C         -2.3903965997       -2.5843168643       -2.0506786106
 C         -2.9375305699       -1.3776418330       -2.4571357003
 C         -3.4323661276       -0.4899690988       -1.5147478750
 H         -3.8787446624        0.4492991821       -1.7954399447
 H         -2.9804385638       -1.1246395688       -3.5041574877
 H         -2.0093608914       -3.2747379269       -2.7865000946
 H         -1.9035168512       -3.8509988125       -0.3904871060
 H         -2.7936164083       -2.2461605075        1.2976610218
 H         -2.1380781756        0.7196652776        2.2771306910
 H         -3.4474226973        2.6020672813       -0.5378356225
 H         -1.9707761174        3.7885188493       -2.1339087738
 H          0.4655427976        3.7334630664       -1.8483188285
 C          1.8893078192        2.4181740603        0.1465473833
 H          2.0881708599        2.8806217314        1.1245952499
 C          2.7256490800        3.1212302513       -0.9014178385
 C          2.9472489955        4.6005507025       -0.8163590449
 C          4.0700083653        3.6556786815       -0.5127167986
 H          4.8823089231        3.5731290303       -1.2191402256
 H          4.3743484214        3.5333602620        0.5169396287
 H          2.4922336288        5.1278728395        0.0085371252
 H          2.9924620952        5.1699524926       -1.7323575341
 H          2.6324853317        2.6710282127       -1.8826134202
 O          1.6229953729        0.4138725210       -1.9087426463
