  62
        -98.93668468
 C         -2.5554587653       -0.8399696542        0.0548851603
 C         -3.0430918086        0.1583363030        0.9260854755
 C         -3.2556011696        1.5017404518        0.3528893707
 C         -2.9629965814        1.7029351297       -0.9458420279
 C         -3.0305264091        2.9884814470       -1.7263648682
 C         -1.8564417889        3.9276490707       -1.4068589805
 C         -1.5391347424        4.0767113216        0.0787612063
 H         -1.3007539343        3.0942033585        0.4912138900
 H         -0.6350668306        4.6856719486        0.1628245259
 C         -2.6313302685        4.7354120565        0.9185922756
 H         -2.8401099565        5.7288267059        0.5158584715
 H         -2.2299566227        4.8634026383        1.9271073383
 C         -3.9503342170        3.9666039738        1.0270145003
 H         -4.5514517988        4.0892436161        0.1301918287
 H         -4.5204199192        4.4140264028        1.8463381361
 C         -3.8008012872        2.4856415300        1.3607074347
 H         -3.1742986640        2.3805595251        2.2538653912
 H         -4.7829750272        2.0934739617        1.6511563753
 H         -2.0710536925        4.9074599462       -1.8370556125
 H         -0.9628014065        3.5302290386       -1.8958239494
 H         -3.9814192097        3.4841202472       -1.5558074321
 H         -2.9790716647        2.7166427971       -2.7829835675
 O         -2.4915213095        0.7068345326       -1.7507404355
 C         -2.2648799823       -0.5733101895       -1.2827440266
 O         -1.8201571195       -1.3663502985       -2.1349631928
 O         -3.2772650007       -0.0530757810        2.1481240747
 C         -2.2703078821       -2.2279075867        0.5999070187
 C         -0.8093093859       -2.5498307510        0.3993283345
 C         -0.3471718072       -3.7544507217       -0.1133219923
 C          1.0070889827       -3.9572581504       -0.3204318584
 C          1.9279917002       -2.9704110725       -0.0210971032
 C          1.4770782443       -1.7692132238        0.5074139237
 C          0.1240369434       -1.5730500166        0.7243317171
 H         -0.2200905547       -0.6274735552        1.1281256019
 N          2.4130878367       -0.7449869342        0.8005186032
 S          2.9937503918        0.0885920364       -0.5559222835
 O          2.1851202304        1.2723112119       -0.7688977495
 O          3.1134877441       -0.8274290293       -1.6599322863
 C          4.6135735274        0.5674018472        0.0133906981
 C          5.6353777793       -0.3592258548       -0.0579501436
 C          6.8888103914       -0.0134052485        0.4205264675
 C          7.0976949424        1.2461510507        0.9625034009
 C          6.0622901171        2.1659442235        1.0266876447
 C          4.8059620374        1.8251625056        0.5501382869
 H          3.9746310541        2.5113054406        0.5718366850
 H          6.2275598508        3.1455308560        1.4456747218
 H          8.0739424149        1.5133573632        1.3351253327
 H          7.6966515684       -0.7254794753        0.3701328052
 H          5.4281985629       -1.3219941478       -0.4949696280
 H          2.0116091557       -0.0507035886        1.4185020363
 H          2.9802966947       -3.1074759273       -0.2064009579
 H          1.3475812409       -4.8955412040       -0.7313250154
 H         -1.0497496501       -4.5308565624       -0.3685395137
 H         -2.4691255016       -2.1672238961        1.6805145572
 C         -3.2062115007       -3.2475120666       -0.0130820334
 C         -3.5827579987       -4.4822160839        0.7488170823
 C         -4.5885381863       -3.3902364137        0.5473529512
 H         -5.4065733570       -3.5585378468       -0.1367581294
 H         -4.8464780191       -2.7674711455        1.3914593153
 H         -3.7136753524       -5.4042823282        0.2029544632
 H         -3.1630189792       -4.6078314245        1.7353061808
 H         -3.0909840462       -3.3205479933       -1.0889137179
