  62
        -98.94123332
 C          1.4558848385        1.6060632736       -0.0853889189
 C          0.4731199521        1.8767697863       -1.0675593797
 C         -0.7847616378        2.5052196038       -0.6204895900
 C         -0.9236529071        2.8073183113        0.6836277426
 C         -2.1283667693        3.3676179939        1.3918672572
 C         -3.2186108083        2.3066467656        1.6028959745
 C         -3.5600337703        1.4838817156        0.3635852645
 H         -2.6715042582        0.9315573966        0.0528716819
 H         -4.3039689422        0.7388791534        0.6597968987
 C         -4.1229008560        2.2721838967       -0.8174061154
 H         -5.0133237985        2.8142217370       -0.4918788360
 H         -4.4340886414        1.5419641203       -1.5684927725
 C         -3.1644805895        3.2609219925       -1.4880258328
 H         -3.1000046442        4.1916628860       -0.9305907514
 H         -3.5898946536        3.5132932875       -2.4635326671
 C         -1.7671173035        2.7097845469       -1.7489711893
 H         -1.8556797312        1.7439219940       -2.2579835134
 H         -1.2580845581        3.3687967222       -2.4625514823
 H         -4.1160303691        2.8038695394        1.9764609750
 H         -2.8689822252        1.6090328023        2.3694475248
 H         -2.5230279469        4.2266643403        0.8575808057
 H         -1.7847389174        3.7100392061        2.3707839809
 O          0.0708799813        2.5830802183        1.5871938325
 C          1.2563219274        1.9514259940        1.2525173781
 O          2.0241012129        1.7797411761        2.2194181948
 O          0.6280858961        1.5847688499       -2.2857195849
 C          2.6864257197        0.8457179041       -0.5376046938
 C          2.5333256938       -0.6469833248       -0.3278792501
 C          3.2943768692       -1.5453832476       -1.0704430296
 C          3.1323795867       -2.9086970119       -0.9079176869
 C          2.1837978152       -3.4087103538       -0.0319194252
 C          1.4186368640       -2.5218363357        0.7141225250
 C          1.6209342606       -1.1549870762        0.5820870680
 H          1.0375055102       -0.4895886399        1.1981270174
 N          0.4227063884       -2.9759666678        1.5970487194
 S         -1.0997804409       -2.2775048651        1.5251544767
 O         -1.0623357557       -0.9225422247        2.0096750380
 O         -1.9469844910       -3.1944026762        2.2571078577
 C         -1.5217605858       -2.3195379835       -0.2062228355
 C         -1.1351053644       -1.2767878285       -1.0227195065
 C         -1.3828478254       -1.3586935107       -2.3836225377
 C         -2.0226897025       -2.4734510996       -2.9021241700
 C         -2.4166773644       -3.5093692648       -2.0677576505
 C         -2.1565968939       -3.4391080087       -0.7088657886
 H         -2.4449306041       -4.2207502961       -0.0247594773
 H         -2.9188639082       -4.3727423543       -2.4735100570
 H         -2.2145534981       -2.5326283770       -3.9618153070
 H         -1.0568822202       -0.5496406226       -3.0195446312
 H         -0.6440119024       -0.4164868836       -0.5963100491
 H          0.3407211091       -3.9816358791        1.6474207214
 H          2.0365947891       -4.4724987768        0.0744465793
 H          3.7340340547       -3.5926872258       -1.4863041156
 H          4.0116983342       -1.1683224452       -1.7824805398
 H          2.7496102951        1.0144998900       -1.6227725753
 C          3.9722770017        1.3385996725        0.0983904659
 C          5.2472702469        1.3503773433       -0.6883990860
 C          4.5617149025        2.6400434983       -0.3537547029
 H          4.9994877800        3.2900844545        0.3884605026
 H          4.0512150875        3.1669489004       -1.1469685930
 H          6.1665823966        1.1088857244       -0.1775871365
 H          5.2131462991        1.0216607224       -1.7158341175
 H          4.0334479444        1.1130879786        1.1558230348
