  62
        -98.94189751
 C         -1.1120455453       -1.2719269968        0.0730088319
 C         -1.5849175569       -0.2354386821        0.9078279115
 C         -2.5694157134        0.6955500903        0.3258216214
 C         -2.9463809423        0.5186851338       -0.9540591323
 C         -3.9595545674        1.3163317421       -1.7290658298
 C         -5.4096213176        0.9589236606       -1.3521349145
 C         -5.6530284042        0.7094259906        0.1351462772
 H         -6.6629189526        0.3051569593        0.2433262020
 H         -4.9589517944       -0.0559882639        0.4873932583
 C         -5.5476150191        1.9424324042        1.0293824814
 H         -5.7486016529        1.6225044745        2.0549240992
 H         -6.3247363241        2.6557661447        0.7449113390
 C         -4.2034329180        2.6694186000        1.0068010564
 H         -4.2247554934        3.4198916081        1.8028821305
 H         -4.0765024259        3.2128019354        0.0741357659
 C         -2.9862375450        1.7897185860        1.2792437535
 H         -2.1104950926        2.4433024607        1.3871113367
 H         -3.1096336369        1.3016592173        2.2526776258
 H         -6.0655681605        1.7573219879       -1.7024733758
 H         -5.6762517262        0.0441317239       -1.8866284141
 H         -3.7660344510        2.3774712739       -1.5979594057
 H         -3.8048744647        1.0822206145       -2.7847176348
 O         -2.4630037422       -0.4949223220       -1.7260353685
 C         -1.5257557697       -1.3959115259       -1.2525356662
 O         -1.1542611646       -2.2424273326       -2.0882845821
 O         -1.2010203594       -0.0874743865        2.1007283012
 C         -0.0694823543       -2.2300068833        0.6123306623
 C          1.2374384330       -2.1003836862       -0.1345243646
 C          2.1370747210       -3.1540250794       -0.2533927645
 C          3.3397440793       -2.9769676038       -0.9146788472
 C          3.6819664053       -1.7503971551       -1.4548932035
 C          2.7904823747       -0.6898701356       -1.3401603980
 C          1.5840622351       -0.8745506567       -0.6839520957
 H          0.8900416557       -0.0509404996       -0.6306891511
 N          3.0888428312        0.5674250196       -1.8814891945
 S          2.4846113187        1.9662599948       -1.2032774722
 O          1.0765636199        2.1032645477       -1.4843626886
 O          3.3374168485        3.0078840475       -1.7362466729
 C          2.7658765065        1.7995206014        0.5497990556
 C          1.7023921125        1.6557356507        1.4156256829
 C          1.9527861077        1.4787652902        2.7669884454
 C          3.2591614347        1.4565912440        3.2286384351
 C          4.3193028863        1.6175323536        2.3484694214
 C          4.0736590343        1.7864399268        0.9960658372
 H          4.8708907783        1.9218457127        0.2835095334
 H          5.3340946860        1.6064256041        2.7121533943
 H          3.4505053829        1.3151784137        4.2806482023
 H          1.1183092115        1.3435126233        3.4367126178
 H          0.6944517386        1.6714800713        1.0313511176
 H          4.0268127509        0.6796669995       -2.2348960335
 H          4.6202122883       -1.6147681903       -1.9701373619
 H          4.0248668519       -3.8058807594       -1.0063121542
 H          1.8917122939       -4.1158711789        0.1663218107
 H          0.1084298028       -1.9103215592        1.6512635130
 C         -0.6014841441       -3.6496507676        0.6259014619
 C         -0.2247475226       -4.5968426415        1.7248775968
 C         -1.6111788543       -4.0325797830        1.6652746368
 H         -2.4254326206       -4.6813109279        1.3793610124
 H         -1.8879533019       -3.2774986097        2.3866859351
 H         -0.0877563200       -5.6396308379        1.4809063790
 H          0.4333648344       -4.2316930074        2.4988114217
 H         -0.7369236282       -4.0494237400       -0.3727298379
