  62
        -98.92371642
 C         -2.4165935806       -1.3587777805       -0.0192906118
 C         -2.1261436841       -0.1217546471        0.5999311358
 C         -3.2275486279        0.8700841243        0.6490870688
 C         -4.4487698813        0.5226252670        0.2066796626
 C         -5.6961190692        1.3623882673        0.1276087461
 C         -5.6636746956        2.3621797188       -1.0393619283
 C         -4.3416725962        3.1056452197       -1.2112772082
 H         -3.5373579605        2.3816407351       -1.3561003667
 H         -4.4105985910        3.6994848670       -2.1266156890
 C         -3.9731277745        4.0498783109       -0.0693983826
 H         -3.0611717331        4.5752314968       -0.3650005523
 H         -4.7628706619        4.7952052138        0.0487522180
 C         -3.7194222151        3.3915616420        1.2884867697
 H         -3.2340987506        4.1368980386        1.9255415610
 H         -4.6527585442        3.1275665980        1.7783669283
 C         -2.7873175545        2.1842807989        1.2486202591
 H         -1.8612246475        2.4605011101        0.7296408586
 H         -2.4759253291        1.9490819832        2.2739956933
 H         -6.4724933360        3.0813705497       -0.9003352700
 H         -5.8564091452        1.8102337542       -1.9624209895
 H         -6.5269328201        0.6710912266       -0.0296786344
 H         -5.8641601561        1.8728852864        1.0711188734
 O         -4.7068323221       -0.7219909340       -0.2873532524
 C         -3.7190071107       -1.6718880232       -0.4224144863
 O         -4.1159214880       -2.7595524439       -0.8884921239
 H          0.8839877859       -0.9082793015       -0.5346291249
 C          0.9091741692       -1.5779058067        0.3038619113
 C         -0.1697670255       -2.4028024021        0.5899146633
 C         -0.1006395350       -3.2043117719        1.7252493865
 C          1.0031706370       -3.1670924310        2.5579851633
 C          2.0657067542       -2.3311078013        2.2738291963
 C          2.0150584488       -1.5302731961        1.1376939275
 N          3.1154006009       -0.7148181639        0.8058437117
 S          2.9781452219        0.8402183783        0.1720789532
 O          2.6174798728        1.7827627816        1.2096682398
 O          2.1633396491        0.8308163868       -1.0148657829
 C          4.6848816918        1.0877599997       -0.2867166893
 C          5.5048778106        1.8779827683        0.4950038095
 C          6.8342916796        2.0310268449        0.1325998574
 C          7.3191651439        1.3919883143       -0.9981820452
 C          6.4837387871        0.6018708289       -1.7740585142
 C          5.1540729080        0.4462847584       -1.4170470056
 H          4.4667744747       -0.1513477396       -1.9929841136
 H          6.8633366923        0.1076800479       -2.6538598732
 H          8.3538243930        1.5117153348       -1.2782887247
 H          7.4851810198        2.6464323140        0.7326375082
 H          5.0826243852        2.3610883724        1.3615296689
 H          3.7945091889       -0.6826086195        1.5556152675
 H          2.9249055233       -2.2919502936        2.9269253096
 H          1.0317550411       -3.7892050037        3.4400461912
 H         -0.9334719248       -3.8514412502        1.9643709440
 C         -1.4055351855       -2.4779220260       -0.2653463976
 H         -1.9356436481       -3.4004848827        0.0263041766
 C         -1.1910450816       -2.6230521027       -1.7745207241
 C         -0.5492981747       -1.5974949731       -2.6590588228
 C          0.1221056041       -2.9189577177       -2.4294287326
 H          0.1357040243       -3.6324533942       -3.2397983028
 H          1.0054361896       -2.9348793322       -1.8100852470
 H         -1.0061363164       -1.4147944463       -3.6218425762
 H         -0.1275466561       -0.7059886713       -2.2200876851
 H         -2.0590671926       -3.1097057782       -2.2089957043
 O         -1.0159162162        0.1828677253        1.1109740845
