  62
        -98.93773712
 C         -2.4699234584       -0.9264663382        0.6891314346
 C         -3.5279811122       -0.9479408056       -0.2523265374
 C         -4.6986679265       -0.1196411194        0.0790469990
 C         -4.7034281922        0.6066529459        1.2106156775
 C         -5.8050065521        1.5334967334        1.6342889564
 C         -5.5650927197        2.9587164998        1.1169022080
 C         -5.2249765055        3.0273405313       -0.3719558498
 H         -5.1081916332        4.0820962305       -0.6303711664
 H         -4.2577811850        2.5476017893       -0.5400132687
 C         -6.2736034974        2.3887120730       -1.2933143042
 H         -6.4510334939        3.0576650391       -2.1380952808
 H         -7.2193164354        2.2819720512       -0.7606581395
 C         -5.8648715892        1.0346098100       -1.8759580543
 H         -6.5694212814        0.7807203349       -2.6725283441
 H         -4.8737127749        1.1150486661       -2.3296500303
 C         -5.8491450018       -0.1386440566       -0.8881425055
 H         -6.8003548938       -0.1827718772       -0.3539712667
 H         -5.7376268397       -1.0589810342       -1.4687575565
 H         -4.7353659146        3.3956791788        1.6772920503
 H         -6.4592167642        3.5525803414        1.3152066264
 H         -6.7543201721        1.1552316332        1.2600552820
 H         -5.8365801273        1.5532252927        2.7249561815
 O         -3.6663719720        0.6113722176        2.0861879336
 C         -2.5338151464       -0.1451279804        1.8474967663
 O         -1.6606675682       -0.0484450382        2.7340230124
 H          1.1884833914       -0.6449517864        1.1657640434
 C          0.9732821839       -0.5291722817        0.1116971003
 C         -0.2218799361       -1.0196182492       -0.3941315405
 C         -0.4934647328       -0.8505126715       -1.7475581621
 C          0.4124311711       -0.2008652241       -2.5662960165
 C          1.6017235683        0.2911480372       -2.0580810291
 C          1.8823843606        0.1281480924       -0.7082940155
 N          3.0798900586        0.6421456527       -0.1797819542
 S          4.4858446180        0.4042519118       -1.0875958985
 O          4.5740295761        1.4533402521       -2.0723765405
 O          4.5198238463       -0.9468112196       -1.6001999841
 C          5.7440562172        0.6303831600        0.1534603440
 C          6.1543672372        1.9128095856        0.4645763790
 C          7.1163752191        2.0875213063        1.4466667376
 C          7.6482773729        0.9841638524        2.0975136573
 C          7.2272655447       -0.2968192540        1.7732951136
 C          6.2645350790       -0.4787752250        0.7930502174
 H          5.9148696252       -1.4563805167        0.5018036333
 H          7.6448516782       -1.1527262404        2.2787252400
 H          8.3980522823        1.1228656566        2.8603518517
 H          7.4486190208        3.0812785492        1.7001267093
 H          5.7205465972        2.7391410654       -0.0739081031
 H          3.2150208279        0.3815129368        0.7873971775
 H          2.3179272564        0.7932600692       -2.6888814647
 H          0.1908322879       -0.0752814914       -3.6157834589
 H         -1.4249680343       -1.2205130855       -2.1473266508
 C         -1.1885492016       -1.7294834128        0.5245751590
 H         -0.7337932678       -1.7603111760        1.5239395421
 C         -1.4262468714       -3.1558387918        0.0682709238
 C         -0.3604709834       -4.1789905962        0.3152477296
 C         -1.6405461229       -4.2262001952        1.0935076545
 H         -2.3491341377       -5.0114172323        0.8772166747
 H         -1.6164641761       -3.9347143634        2.1337238332
 H         -0.1862595786       -4.9325491552       -0.4373018811
 H          0.5336580175       -3.8563996728        0.8274622760
 H         -1.9914663685       -3.2281188032       -0.8507668247
 O         -3.5241680739       -1.6172529171       -1.3190260608
