  62
        -98.93645873
 C         -1.8859496478       -0.5775984134       -0.3983728728
 C         -2.9394086451       -1.0003335834        0.4466107367
 C         -4.2260053904       -0.2934426177        0.3138592552
 C         -4.3186232567        0.7324872557       -0.5511422009
 C         -5.5109630968        1.6006242809       -0.8651028554
 C         -6.3522354383        2.0808140322        0.3274807807
 C         -7.7275124576        1.4157550569        0.4102588589
 H         -8.4007516485        2.0740276539        0.9639434610
 H         -8.1275204001        1.3180271110       -0.6011845312
 C         -7.7497626285        0.0506891118        1.0958263461
 H         -7.5934842121        0.1825643256        2.1686992979
 H         -8.7494968723       -0.3695023003        0.9627174085
 C         -6.7212637611       -0.9568363366        0.5785950108
 H         -6.6484205409       -0.9042680114       -0.5071642011
 H         -7.0810789511       -1.9578980462        0.8256030812
 C         -5.3293244787       -0.7918276656        1.2068173683
 H         -5.3910723850       -0.1454647612        2.0870056195
 H         -4.9732938928       -1.7605009969        1.5709682940
 H         -5.8013906765        1.9310770840        1.2547114497
 H         -6.5053439418        3.1553450558        0.2140040213
 H         -5.1005911347        2.4607243347       -1.3992851350
 H         -6.1475986685        1.0685333831       -1.5766761461
 O         -3.2682083426        1.1232378976       -1.3278508216
 C         -2.0384795970        0.4879836585       -1.2838767275
 O         -1.1946572643        0.9599964676       -2.0695688410
 O         -2.8142091414       -1.9399063748        1.2771847617
 C         -0.5512162644       -1.2962810615       -0.2949430605
 C          0.4622121922       -0.3572887092        0.3093430791
 C          0.4782236560       -0.1686701956        1.6885059965
 C          1.3810528957        0.6991560377        2.2740555708
 C          2.2878282283        1.3978968009        1.4960990099
 C          2.2732058456        1.2220923766        0.1193069628
 C          1.3726285758        0.3429511094       -0.4666692259
 H          1.3646075997        0.2279033976       -1.5388285260
 N          3.2082211196        1.9179123203       -0.6726436538
 S          4.8167590251        1.6792210551       -0.2676279822
 O          5.1632121477        2.5259558311        0.8463743870
 O          5.5633758824        1.9003424200       -1.4860795155
 C          4.8970021663       -0.0342208225        0.2243630014
 C          4.6747498617       -0.9970067568       -0.7403059228
 C          4.6614384538       -2.3304323273       -0.3662240336
 C          4.8643018515       -2.6763415554        0.9611156162
 C          5.0888955821       -1.6982917069        1.9171176649
 C          5.1026774041       -0.3624781464        1.5485485419
 H          5.2705474278        0.4295296779        2.2597107614
 H          5.2473578958       -1.9707686986        2.9480613808
 H          4.8472260997       -3.7152733580        1.2505860104
 H          4.4872908437       -3.0935216537       -1.1077855002
 H          4.5258035209       -0.6929870277       -1.7639787948
 H          3.0646968041        1.7880858768       -1.6637399647
 H          3.0032218247        2.0773274139        1.9308085472
 H          1.3815207877        0.8328553896        3.3450491254
 H         -0.2345016899       -0.7095182601        2.2952198964
 H         -0.7203065636       -2.1145466971        0.4177565090
 C         -0.1147210312       -1.8847489982       -1.6206673514
 C          1.0264910636       -2.8564348929       -1.6463935030
 C         -0.3709842279       -3.3336847960       -1.9008828053
 H         -0.6439512892       -3.6225857263       -2.9048838710
 H         -0.8629902381       -3.9114451821       -1.1324735956
 H          1.7147651153       -2.8199976769       -2.4769060051
 H          1.4860502493       -3.1051035032       -0.7018792386
 H         -0.2147467986       -1.1953919703       -2.4503897081
