  62
        -98.94124130
 C          1.8657824906        0.5955480794        0.0196473993
 C          2.5859668705        0.0752776903        1.1248973097
 C          3.6852478202       -0.8463173004        0.8098437505
 C          3.9001102700       -1.1962000816       -0.4711699592
 C          5.0195354397       -2.0763228924       -0.9442699984
 C          6.2598107999       -1.2465400031       -1.3052171394
 C          6.6636667603       -0.2384493622       -0.2291751104
 H          7.5663159004        0.2668095872       -0.5793144910
 H          5.8841094805        0.5220090181       -0.1425646110
 C          6.9254426803       -0.8550800909        1.1521136602
 H          7.0840077800       -1.9296261311        1.0538930712
 H          7.8447242204       -0.4277296208        1.5579937297
 C          5.8226238105       -0.5979722596        2.1807832400
 H          6.2018765305       -0.8856066688        3.1649385403
 H          5.5976734108        0.4710730705        2.2173043890
 C          4.5105758302       -1.3600518195        1.9558679709
 H          3.8938698803       -1.2320268284        2.8504890309
 H          4.7199738999       -2.4248025597        1.8331730519
 H          7.0890364497       -1.9303198235       -1.4954601688
 H          6.0528016800       -0.6986898440       -2.2274885299
 H          4.6821532495       -2.6151058232       -1.8313827879
 H          5.2644959496       -2.7961234717       -0.1655080678
 O          3.1360355900       -0.7448747824       -1.4965841295
 C          2.1048118003        0.1642280981       -1.2866258003
 O          1.4991443803        0.4835682872       -2.3250207206
 O          2.3168087507        0.3652571715        2.3217579895
 C          0.7467188809        1.5794568100        0.3118038285
 C         -0.5116286393        1.1594609197       -0.4046262110
 C         -1.1660144592        1.9436548989       -1.3441629717
 C         -2.3078244894        1.4767671387       -1.9728241711
 C         -2.8249197197        0.2304324691       -1.6742839999
 C         -2.1851340698       -0.5569799402       -0.7245487992
 C         -1.0452173196       -0.0859380499       -0.0930097597
 H         -0.5421751997       -0.7044465693        0.6407029408
 N         -2.7117681401       -1.8189801097       -0.4023056679
 S         -4.3650739902       -1.9456752990       -0.1799602976
 O         -4.5390281404       -3.0490476981        0.7391086935
 O         -5.0197789403       -2.0842094701       -1.4570144174
 C         -4.8551903796       -0.4090294782        0.5839944710
 C         -5.7663757895        0.4133907315       -0.0464258597
 C         -6.1082359591        1.6166581622        0.5498453891
 C         -5.5320641589        1.9765582832        1.7579342687
 C         -4.6207604990        1.1375385935        2.3810887994
 C         -4.2774201694       -0.0676681972        1.7908796206
 H         -3.5752018896       -0.7430981769        2.2530305211
 H         -4.1733817689        1.4186053043        3.3210042391
 H         -5.7940005985        2.9158914637        2.2186364478
 H         -6.8179226489        2.2699021019        0.0684925786
 H         -6.1862093997        0.0962677707       -0.9870874294
 H         -2.2024624102       -2.3085252392        0.3180122525
 H         -3.7005268599       -0.1543342911       -2.1715785494
 H         -2.7979790093        2.0902507581       -2.7131657217
 H         -0.7662287089        2.9086452086       -1.6075563727
 H          0.5691827210        1.4697244111        1.3950046186
 C          1.1184754913        3.0367409497        0.0841189970
 C          2.5378202114        3.4985763494        0.2203602864
 C          1.8760422713        3.4978243583       -1.1234032735
 H          1.6099913815        4.4486497779       -1.5617833944
 H          2.1703721510        2.7527810275       -1.8454844928
 H          2.7270082417        4.4454690198        0.7033724655
 H          3.2906916212        2.7494085794        0.4193800371
 H          0.3579428415        3.7106858103        0.4660805365
