  62
        -98.93817114
 C         -1.5908362830       -1.4815262404        0.3161821661
 C         -1.7723927574       -0.2442149984        0.9849960117
 C         -3.0509040383        0.4573574199        0.7751327575
 C         -3.9906258129       -0.1120657288       -0.0020037727
 C         -5.4017781553        0.3166486842       -0.3479651263
 C         -5.8969058259        1.7185423391       -0.0041058877
 C         -5.2532167195        2.8379097147       -0.8231120795
 H         -5.6356077727        2.7797735612       -1.8453415762
 H         -5.5690555528        3.7959276201       -0.4047328640
 C         -3.7291426562        2.8045789601       -0.9022531412
 H         -3.4069452505        1.8739677014       -1.3737227561
 H         -3.4107324767        3.6223109950       -1.5542990342
 C         -2.9986784781        2.9637402697        0.4290637427
 H         -3.3146683038        3.8894783923        0.9142545614
 H         -1.9320502763        3.0452273150        0.2052679812
 C         -3.1777961606        1.8057650351        1.4243009983
 H         -4.1189635308        1.8905181532        1.9620654527
 H         -2.3742697531        1.8638140450        2.1646804300
 H         -5.7842416485        1.9047145828        1.0600039597
 H         -6.9699732038        1.7312328816       -0.2138468302
 H         -5.5116704725        0.1507258860       -1.4244714221
 H         -6.0568324051       -0.4121843901        0.1421455271
 O         -3.7788797146       -1.3134240590       -0.6114999638
 C         -2.5855263651       -2.0105804530       -0.5042526937
 O         -2.5663104019       -3.0573546819       -1.1812250467
 O         -0.8995279353        0.2537986221        1.7447540484
 C         -0.2605157427       -2.1797677755        0.5343065321
 C          0.7305333442       -1.8419637224       -0.5545343938
 C          0.4453419042       -2.0785271671       -1.8952133663
 C          1.3751994535       -1.7690727500       -2.8706722214
 C          2.5979299537       -1.2158048708       -2.5325039239
 C          2.8960454543       -0.9825472592       -1.1948205605
 C          1.9617422698       -1.2994230798       -0.2176269042
 H          2.2095398721       -1.1243592054        0.8173985856
 N          4.1407180854       -0.4561860338       -0.8267556403
 S          4.3289694404        0.5645445626        0.4813975613
 O          5.6500529309        1.1243810485        0.2974205902
 O          4.1130491498       -0.1579960634        1.7091041191
 C          3.1049345055        1.8432956868        0.2736033273
 C          1.9697168113        1.8588764126        1.0557908414
 C          1.0302230974        2.8572490416        0.8535707159
 C          1.2374316129        3.8156914349       -0.1249533385
 C          2.3866897249        3.7891890901       -0.9019797437
 C          3.3295152456        2.7949295189       -0.7035388709
 H          4.2424545831        2.7512166902       -1.2750561072
 H          2.5477815458        4.5397191127       -1.6591229185
 H          0.5020405630        4.5899916694       -0.2797330627
 H          0.1390623532        2.8590368481        1.4604999441
 H          1.8178125484        1.1018324565        1.8072695541
 H          4.7361622589       -0.1906632913       -1.5967895937
 H          3.3208274920       -0.9744666696       -3.2966787997
 H          1.1439436697       -1.9574683045       -3.9082745500
 H         -0.5084828442       -2.5072765083       -2.1624034926
 H          0.1322558290       -1.7674410283        1.4742003736
 C         -0.3707468118       -3.6843783006        0.6874398056
 C          0.7322984990       -4.4219867239        1.3828883605
 C         -0.6034326396       -4.2703300566        2.0459366151
 H         -1.2416154075       -5.1371166442        2.1298100308
 H         -0.6838758887       -3.5873864060        2.8793391090
 H          1.0147947841       -5.3951669883        1.0117797030
 H          1.5589960926       -3.8423100314        1.7665882584
 H         -0.8507516891       -4.1691193990       -0.1524556682
