  62
        -98.93936302
 C          1.8622522777        1.5399589556        0.2131497293
 C          1.8158634008        0.5767037941       -0.8208695678
 C          2.8744742058       -0.4537125708       -0.8112318852
 C          3.7719338763       -0.4748456709        0.1915686270
 C          4.9791576690       -1.3549631305        0.4421875998
 C          5.2275715382       -2.6056861524       -0.3964670440
 C          4.2399272120       -3.7440443541       -0.1438827747
 H          4.4422501784       -4.5412949388       -0.8622374209
 H          4.4203859603       -4.1443186029        0.8568705077
 C          2.7659991938       -3.3574546380       -0.2288314424
 H          2.1723758253       -4.2493619777       -0.0107523594
 H          2.5425505056       -2.6179652299        0.5432072508
 C          2.3161790872       -2.8180780218       -1.5851040672
 H          1.2244500198       -2.7588090852       -1.5787264905
 H          2.6016889147       -3.5207974680       -2.3704286344
 C          2.8561243327       -1.4264390062       -1.9571067585
 H          2.1880891952       -0.9979172072       -2.7101862939
 H          3.8447793606       -1.4966596138       -2.4058718693
 H          6.2241258711       -2.9674210739       -0.1293065117
 H          5.2584208850       -2.3520796103       -1.4520436869
 H          5.8463111032       -0.6928698448        0.3416344373
 H          4.9313638846       -1.6361509975        1.4991655104
 O          3.7270647045        0.4322682339        1.2112751873
 C          2.8053215787        1.4596332448        1.2404872146
 O          2.9228296581        2.2256044964        2.2167595606
 O          0.9536869289        0.5717678559       -1.7392337842
 C          0.9004602854        2.7179510803        0.2708674838
 C         -0.4894406637        2.2271874671        0.5922055629
 C         -0.8884163235        2.0963038071        1.9191686595
 C         -2.1420523858        1.6045575466        2.2350329289
 C         -3.0143439584        1.2074024047        1.2361765717
 C         -2.6126576576        1.3100638848       -0.0889888525
 C         -1.3695880639        1.8402318561       -0.4057692238
 H         -1.0701149849        1.9048836147       -1.4393750378
 N         -3.4571150873        0.8422342530       -1.1106847650
 S         -4.1959693980       -0.6387958708       -0.8661762447
 O         -4.3109183693       -1.2350941897       -2.1793295555
 O         -5.4425010380       -0.4388741419       -0.1670828491
 C         -3.0993409939       -1.6002137894        0.1683051783
 C         -1.7484186353       -1.6471532929       -0.1153460401
 C         -0.9202509515       -2.3874032810        0.7129122693
 C         -1.4494159008       -3.0781380703        1.7917778588
 C         -2.8092102379       -3.0315858866        2.0549552458
 C         -3.6413958523       -2.2814426338        1.2401068014
 H         -4.7016390210       -2.2014714940        1.4178923955
 H         -3.2208766803       -3.5692535681        2.8937955405
 H         -0.7953197858       -3.6511790319        2.4298179131
 H          0.1390327843       -2.4110021446        0.5136884352
 H         -1.3413958169       -1.1033677210       -0.9539605992
 H         -3.0359205409        0.8854318709       -2.0277790270
 H         -3.9922311293        0.8132765855        1.4627510094
 H         -2.4417242425        1.5210864669        3.2684475293
 H         -0.1977666551        2.3775994849        2.7017040746
 H          1.2422876281        3.3352267342        1.1118605341
 C          0.9643842401        3.5488633721       -0.9953004263
 C          0.3730006006        4.9252976467       -0.9964942353
 C          1.8605141826        4.7481645485       -1.0389788353
 H          2.3811567448        4.9690508668       -1.9588432375
 H          2.4292517450        4.9805064146       -0.1503349098
 H         -0.1297968890        5.2713577863       -1.8866294362
 H         -0.0695671157        5.2772738231       -0.0769163789
 H          0.8851644484        2.9642489470       -1.9030356469
