  62
        -98.94253379
 C         -1.0345180198       -1.3313920180        0.6933125305
 C         -1.6438659924       -1.0052717919       -0.5453319696
 C         -2.4931598423        0.1981053179       -0.5365695766
 C         -2.6443926126        0.9157823115        0.5895795245
 C         -3.4444672153        2.1815373161        0.7378510456
 C         -4.9442638618        1.9509629169        0.9683489885
 C         -5.7256457773        1.4699155597       -0.2549415660
 H         -6.7865725817        1.5619242289       -0.0140836562
 H         -5.5243447827        2.1326663830       -1.0972447111
 C         -5.4368220734        0.0178401060       -0.6607028854
 H         -4.9554707855       -0.5037868184        0.1697192617
 H         -6.3781775785       -0.4986830103       -0.8611747910
 C         -4.5652447236       -0.1304724211       -1.9082069620
 H         -5.0938503345        0.2707432165       -2.7759066430
 H         -4.3919880059       -1.1954307124       -2.0831769281
 C         -3.1991154949        0.5601902183       -1.8076072228
 H         -2.5748174983        0.2229902093       -2.6395528445
 H         -3.3159691218        1.6416826606       -1.8829122825
 H         -5.0661418021        1.2334323250        1.7829149429
 H         -5.3727878560        2.9012864344        1.2947276134
 H         -3.0401801186        2.7058358622        1.6064373376
 H         -3.3006251758        2.8090958273       -0.1425460709
 O         -2.0446470374        0.5682265570        1.7596357566
 C         -1.2339176184       -0.5538948743        1.8368722291
 O         -0.7524770680       -0.7536871265        2.9696876108
 H          0.9166207926       -0.8993487567       -1.0829331033
 C          1.6754236048       -1.2155861457       -0.3838507567
 C          1.3445473772       -2.0459719835        0.6781558701
 C          2.3496227119       -2.4450577502        1.5518741217
 C          3.6552463547       -2.0298039960        1.3607688999
 C          3.9783974483       -1.1916256897        0.3090389112
 C          2.9796871886       -0.7786881583       -0.5651434873
 N          3.2700276055        0.0903832693       -1.6335267059
 S          2.3270137704        1.4658091785       -1.7970025811
 O          1.0345285596        1.1348409087       -2.3352483019
 O          3.1377845954        2.3639654185       -2.5912833040
 C          2.1768276501        2.0881086176       -0.1332998723
 C          3.2582157274        2.7418446710        0.4249604493
 C          3.1796977447        3.1607792102        1.7427708370
 C          2.0317942240        2.9093158819        2.4795418593
 C          0.9537321050        2.2550631229        1.9040450024
 C          1.0251714425        1.8396657230        0.5838266073
 H          0.2059988779        1.3275135029        0.1025276426
 H          0.0643579974        2.0456845058        2.4778206491
 H          1.9722089765        3.2245115630        3.5092701481
 H          4.0125349339        3.6754196494        2.1941489595
 H          4.1286365218        2.9240511320       -0.1843271229
 H          4.2486561382        0.3305211858       -1.7107693419
 H          4.9939955968       -0.8566417782        0.1637030793
 H          4.4264774698       -2.3503179365        2.0440440443
 H          2.0979932190       -3.0747006322        2.3924104883
 C         -0.0800795280       -2.4989471206        0.8814602948
 H         -0.1806632698       -2.7924970488        1.9390647203
 C         -0.4319731432       -3.7180638938        0.0409122988
 C          0.3387447294       -4.1295513935       -1.1733671710
 C          0.4392547292       -4.9388210927        0.0826043239
 H         -0.0336966899       -5.9086739652        0.1129606626
 H          1.3602201971       -4.8766762476        0.6420155530
 H          1.1847226685       -3.5274542194       -1.4671439455
 H         -0.2192386553       -4.5231266404       -2.0092063655
 H         -1.5033347605       -3.8870616254        0.0067676608
 O         -1.5053873107       -1.6617121082       -1.6075893913
