  62
        -98.94010971
 C         -2.4888144294       -1.2683476285       -0.1140195405
 C         -2.2983825567       -0.0373902005       -0.7869925300
 C         -3.5087267415        0.7720905907       -0.9937437302
 C         -4.6954784829        0.3089539045       -0.5607723048
 C         -5.9920328337        1.0599777088       -0.6456293709
 C         -6.2298116067        1.8982519502        0.6185790428
 C         -5.0302902814        2.7521424338        1.0300354252
 H         -5.3236344317        3.3192916812        1.9160329217
 H         -4.2082423938        2.0961682812        1.3261451377
 C         -4.5371308251        3.7193700326       -0.0551287848
 H         -5.3124235470        3.8566768980       -0.8096875193
 H         -4.3518263703        4.6938503704        0.4014487075
 C         -3.2363087090        3.2949256548       -0.7395174636
 H         -2.8668514482        4.1409819114       -1.3254034736
 H         -2.4786730450        3.0666471483        0.0151430296
 C         -3.3434634651        2.0943864183       -1.6882329162
 H         -2.4021947678        2.0255303024       -2.2421015289
 H         -4.1521552457        2.2598766844       -2.4030781596
 H         -7.0946843352        2.5417715244        0.4480994304
 H         -6.4660167787        1.2214483160        1.4427947101
 H         -6.8024648716        0.3367562902       -0.7491626027
 H         -5.9762882965        1.7027546152       -1.5234773026
 O         -4.8408947552       -0.8894884376        0.0601563916
 C         -3.7453502835       -1.6980825310        0.3133105625
 O         -4.0150080682       -2.7559941518        0.9170003230
 O         -1.1784082046        0.3703759496       -1.1945633752
 C         -1.2986628643       -2.1634396860        0.1873865582
 C         -0.3274445333       -1.4063949016        1.0607062494
 C         -0.7768772610       -0.9425937811        2.2953812603
 C          0.0569234276       -0.2183127799        3.1237271329
 C          1.3535756447        0.0670506473        2.7324579903
 C          1.8151413837       -0.3973885304        1.5070899073
 C          0.9790878605       -1.1414617084        0.6841265372
 H          1.3573143874       -1.4820219277       -0.2641405983
 N          3.1460274978       -0.1530016158        1.1144567216
 S          3.4693633361        0.3635566754       -0.4628095468
 O          2.7824037814        1.6065681689       -0.7355086192
 O          3.2386933669       -0.7243524405       -1.3772348855
 C          5.2230066610        0.6609544204       -0.3199610076
 C          5.6872098657        1.9539881042       -0.1720677557
 C          7.0502447838        2.1664057097       -0.0359357831
 C          7.9209874824        1.0874017138       -0.0471138395
 C          7.4403629173       -0.2050732924       -0.1976192473
 C          6.0790161558       -0.4237949153       -0.3354550113
 H          5.6605207081       -1.4083058134       -0.4635010391
 H          8.1208819378       -1.0411267376       -0.2087207072
 H          8.9811377982        1.2549985233        0.0590901674
 H          7.4265896591        3.1703311766        0.0775285613
 H          4.9733607181        2.7621114342       -0.1781180741
 H          3.6141438894        0.4694078234        1.7615917288
 H          2.0033120801        0.6445551293        3.3730862609
 H         -0.3061584098        0.1365969836        4.0767174875
 H         -1.7962665387       -1.1551142053        2.5900041270
 H         -1.6947242955       -3.0085951758        0.7690907005
 C         -0.6893530433       -2.6971228558       -1.0907639543
 C          0.0929491811       -3.9745956441       -1.0672109538
 C         -1.2614747459       -3.9365786107       -1.7073731502
 H         -1.3272454513       -3.9930524167       -2.7835769919
 H         -2.0851177689       -4.4107388513       -1.1933063460
 H          0.9620352539       -4.0548303207       -1.7025797458
 H          0.1906560674       -4.4813710389       -0.1190011623
 H         -0.3611250959       -1.9115533249       -1.7623832423
