  62
        -98.93442331
 C         -2.4266605589       -1.2324659302        0.0086018884
 C         -2.4069698288       -0.0055270794       -0.6928796902
 C         -3.7182793888        0.6181994209       -0.9519939096
 C         -4.8332478088       -0.0019991596       -0.5276737304
 C         -6.2520532988        0.4839139505       -0.6396440300
 C         -6.6674458990        1.2456838991        0.6304999608
 C         -6.3338328490        2.7369535191        0.6255614426
 H         -6.9908183389        3.2490519199       -0.0804904369
 H         -6.5586487291        3.1236110280        1.6221688830
 C         -4.8828260090        3.0826555795        0.2805829531
 H         -4.2064798790        2.3975975989        0.7954019024
 H         -4.6773153390        4.0849481991        0.6615022143
 C         -4.5992800288        3.0579729612       -1.2287291269
 H         -4.1162994988        3.9925382216       -1.5215972158
 H         -5.5449887488        3.0161882618       -1.7687696370
 C         -3.6829187888        1.9207641418       -1.7040162481
 H         -3.8838330587        1.7182541130       -2.7615606684
 H         -2.6386358488        2.2446362517       -1.6433624376
 H         -6.1837906990        0.7626471881        1.4833456403
 H         -7.7459564990        1.1412905089        0.7645387606
 H         -6.8782683988       -0.4057967294       -0.7317014311
 H         -6.3807476488        1.0967197515       -1.5266833693
 O         -4.8048533389       -1.1879097803        0.1413991382
 C         -3.6146539789       -1.8277498507        0.4306080976
 O         -3.7409376690       -2.8973988714        1.0601359664
 O         -1.3452847288        0.5520550311       -1.0808809394
 C         -1.1249432989       -1.9479564905        0.3196108177
 C         -0.2012914990       -1.0333209714        1.0867887489
 C         -0.6943593191       -0.3664389727        2.2057471496
 C          0.1124786408        0.4885123265        2.9299806106
 C          1.4269383709        0.6987861770        2.5517163810
 C          1.9349460110        0.0254361682        1.4476888103
 C          1.1242444810       -0.8440550210        0.7299542092
 H          1.5390589911       -1.3490175700       -0.1249996913
 N          3.2860713010        0.1854879587        1.0825464406
 S          3.7177016512        0.3783755605       -0.5390835392
 O          3.1283457912        1.5852453911       -1.0772659678
 O          3.4572228312       -0.8433054087       -1.2548400106
 C          5.4779635311        0.5921684303       -0.3443743388
 C          6.0281837911        1.8581193704       -0.4038814573
 C          7.3943249511        2.0049351802       -0.2197810870
 C          8.1817842711        0.8897067699        0.0226932118
 C          7.6151643911       -0.3752457802        0.0780189203
 C          6.2505625911       -0.5287287200       -0.1065296000
 H          5.7672746111       -1.4912834400       -0.0803907911
 H          8.2310836511       -1.2403291904        0.2637425594
 H          9.2442964911        1.0064856898        0.1664750621
 H          7.8380648511        2.9863968702       -0.2659092258
 H          5.3781435211        2.6951451906       -0.6025668564
 H          3.7333977109        0.9136614481        1.6253189014
 H          2.0543839608        1.3775817763        3.1098147618
 H         -0.2863065193        1.0042905055        3.7908170312
 H         -1.7260052591       -0.5224634130        2.4928129293
 H         -1.3902407190       -2.7939132513        0.9712879467
 C         -0.5144525988       -2.4902323491       -0.9557590528
 C          0.3425691912       -3.7184753991       -0.9209040141
 C         -1.0298098087       -3.7788166784       -1.5195691443
 H         -1.1242866286       -3.8712550872       -2.5911457245
 H         -1.8089868088       -4.2830163091       -0.9662071250
 H          1.1967975513       -3.7647346583       -1.5797286141
 H          0.4976545911       -4.1912586302        0.0371614453
 H         -0.2519215587       -1.7064670682       -1.6585838619
