  62
        -98.93818902
 C         -2.3795171933       -1.2036302607       -0.0617856170
 C         -3.0832391283       -0.4205257898        0.8901456262
 C         -3.7292560631        0.8070920065        0.4015230710
 C         -3.6310071365        1.1253670915       -0.9001445754
 C         -4.2333492555        2.2982896242       -1.6325300679
 C         -4.1824579118        3.6670816981       -0.9415181562
 C         -2.9343581825        3.9139427211       -0.0812606761
 H         -2.1855276602        3.1418496489       -0.2713908539
 H         -2.4899474352        4.8693972163       -0.3670056755
 C         -3.2436495444        3.9696001573        1.4168209010
 H         -2.4285897450        4.4930119272        1.9222851512
 H         -4.1524671850        4.5570844693        1.5647724530
 C         -3.4055030557        2.6145802879        2.1042436980
 H         -2.4376310853        2.1072382436        2.1509676778
 H         -3.7229249914        2.7957333808        3.1338776884
 C         -4.4053569423        1.6518363940        1.4426751536
 H         -4.7612880016        0.9579516743        2.2088707422
 H         -5.2587712656        2.1877531538        1.0348880251
 H         -4.2346646999        4.4191604790       -1.7306499677
 H         -5.0702100068        3.7974731984       -0.3243135090
 H         -3.6925363411        2.3476388309       -2.5809203329
 H         -5.2737245429        2.0544355816       -1.8672813757
 O         -2.9521410156        0.3424656418       -1.7838509688
 C         -2.2943681605       -0.8140902622       -1.3969909196
 O         -1.6992948680       -1.3786936380       -2.3390906704
 O         -3.1787949696       -0.7449113470        2.1032702770
 C         -1.6765497810       -2.4442837467        0.4678432637
 C         -0.2267608725       -2.1124962850        0.7279338427
 C          0.2702823437       -2.0341955061        2.0236123778
 C          1.5817684237       -1.6567374819        2.2547648865
 C          2.4185001565       -1.3358034642        1.2004698816
 C          1.9274371593       -1.4046782234       -0.0963025632
 C          0.6225911524       -1.8079819926       -0.3269000448
 H          0.2453370117       -1.8385009941       -1.3386977483
 N          2.7618322471       -1.0185251687       -1.1742094464
 S          3.0047983711        0.6502652472       -1.2461099163
 O          1.8644711391        1.3725661685       -0.7251536459
 O          3.3759996061        0.9342412796       -2.6154144262
 C          4.4180657789        0.9014505820       -0.1931368174
 C          5.6203110383        0.3367615967       -0.5728526096
 C          6.7285336693        0.5144429238        0.2397794063
 C          6.6165133151        1.2507993643        1.4100605264
 C          5.4030626644        1.8135355161        1.7753478405
 C          4.2899963189        1.6384591265        0.9675662872
 H          3.3242399926        2.0509936658        1.2123651069
 H          5.3175472396        2.3856189333        2.6851906085
 H          7.4801901329        1.3873028739        2.0415118854
 H          7.6738852046        0.0789166093       -0.0408536899
 H          5.6618463411       -0.2223080294       -1.4926282395
 H          2.3905025759       -1.3195491032       -2.0661317745
 H          3.4373862698       -1.0286723297        1.3719392669
 H          1.9531919489       -1.6015969040        3.2665536964
 H         -0.3885920640       -2.2484570039        2.8524551720
 H         -2.1521583426       -2.6531128288        1.4354625327
 C         -1.8305224008       -3.6641603983       -0.4166063202
 C         -1.6049927423       -5.0212289911        0.1774772787
 C         -2.9899851302       -4.5865409957       -0.1946578981
 H         -3.4609964416       -5.0356702908       -1.0560567275
 H         -3.6789389864       -4.3403902037        0.6000942872
 H         -1.1221396906       -5.7733007036       -0.4271755661
 H         -1.3549913322       -5.0714283947        1.2263178602
 H         -1.5171775646       -3.5019421595       -1.4394923242
