  62
        -98.93590087
 C         -2.4999105351       -1.0270070579        0.5844017506
 C         -2.5683989967        0.2590363156        1.1802886703
 C         -3.8166993294        1.0034311345        0.9852545666
 C         -4.8262655989        0.4386883341        0.2987669208
 C         -6.1734686762        1.0544598897        0.0342123402
 C         -6.2023479041        1.9955630432       -1.1778287010
 C         -5.5003888230        3.3389131948       -0.9753632384
 H         -5.7833668272        3.9781395551       -1.8139541610
 H         -5.8743863999        3.8099652204       -0.0658982319
 C         -3.9686768970        3.2508348871       -0.9184426518
 H         -3.6412076590        2.2924176077       -1.3283575637
 H         -3.5345202180        4.0314345156       -1.5472266283
 C         -3.3745040553        3.4162782644        0.4805992374
 H         -2.2897279433        3.2969958201        0.4093035086
 H         -3.5783911300        4.4241424287        0.8493719074
 C         -3.8941303601        2.4048448945        1.5107498265
 H         -3.2587596942        2.4622316065        2.3981470548
 H         -4.9174598260        2.6490227903        1.7956494635
 H         -5.7593564470        1.4784622545       -2.0319384729
 H         -7.2510201004        2.1902615987       -1.4136770835
 H         -6.8607179007        0.2272796405       -0.1554673773
 H         -6.5106989226        1.5910373427        0.9214106616
 O         -4.7359555231       -0.8073881414       -0.2318143564
 C         -3.5707101466       -1.5618444461       -0.1339810542
 O         -3.6431117365       -2.6595323278       -0.7144053377
 O         -1.6284418396        0.7570414332        1.8587292901
 C         -1.1991635636       -1.7881230238        0.7645949031
 C         -0.2471837051       -1.5106313984       -0.3714864395
 C         -0.6511142286       -1.6294225175       -1.6980748265
 C          0.2373146250       -1.3690532256       -2.7250224586
 C          1.5376289746       -0.9830737688       -2.4514682465
 C          1.9535737795       -0.8667220604       -1.1300336035
 C          1.0593725108       -1.1307008774       -0.1010313190
 H          1.3875133560       -1.0153045085        0.9210376643
 N          3.2832000884       -0.5226682981       -0.8320806874
 S          3.6033903685        0.4563663948        0.5070492880
 O          3.5072015021       -0.3457099988        1.7002650453
 O          2.7884477377        1.6493008831        0.4581250328
 C          5.3119711755        0.8570765912        0.1922717260
 C          6.2711241765       -0.1049319831        0.4479626720
 C          7.5991513330        0.1860445833        0.1803045781
 C          7.9444564294        1.4269232963       -0.3348478059
 C          6.9713028536        2.3829699914       -0.5834557163
 C          5.6405086536        2.0976149896       -0.3200499345
 H          4.8502567084        2.8111303706       -0.4906120888
 H          7.2430172042        3.3479995356       -0.9799811205
 H          8.9791051822        1.6513938992       -0.5407075145
 H          8.3589821243       -0.5535426301        0.3748280334
 H          5.9565787737       -1.0507487427        0.8570630495
 H          3.7859852464       -0.1915236274       -1.6449207728
 H          2.2273183478       -0.7759318145       -3.2556491067
 H         -0.0881807470       -1.4625402038       -3.7502535899
 H         -1.6652732346       -1.9314823662       -1.9121628467
 H         -0.7487488831       -1.3591454157        1.6750646274
 C         -1.3963510008       -3.2766722902        1.0177698097
 C         -1.0043225487       -4.3422076927        0.0431475333
 C         -0.2066695741       -4.1477417490        1.2953216038
 H         -0.2779537968       -4.8867049715        2.0789598658
 H          0.7691587986       -3.6935245585        1.2032203855
 H         -1.6483723181       -5.2043595884       -0.0366257226
 H         -0.5647552063       -4.0402421876       -0.8940518979
 H         -2.2882838507       -3.4698289070        1.6053178978
