  62
        -98.94502184
 C         -0.9997454286       -1.2647359008        0.4319469796
 C         -1.5498188094       -0.7284910008       -0.7596336300
 C         -2.3915971902        0.4696263885       -0.5934134893
 C         -2.5682681703        0.9978884080        0.6300962909
 C         -3.4263757210        2.1900291172        0.9382338216
 C         -4.8614499606        1.7675062960        1.2824768019
 C         -5.4746538502        0.7894378960        0.2804421617
 H         -4.9280083695       -0.1553525937        0.3230294312
 H         -6.4961369200        0.5853910151        0.6084611120
 C         -5.4956981710        1.2950264365       -1.1688714781
 H         -6.4749398610        1.0789397059       -1.6012925879
 H         -5.3658658518        2.3778237766       -1.1863296077
 C         -4.4538517508        0.6472173876       -2.0834571786
 H         -4.5192216200       -0.4408261825       -2.0019579090
 H         -4.6953469813        0.9124256078       -3.1163283285
 C         -2.9979000811        1.0611106286       -1.8341372489
 H         -2.9190664419        2.1508044586       -1.8210243486
 H         -2.3935894510        0.6916652893       -2.6685661193
 H         -4.8553484100        1.2908569657        2.2652956817
 H         -5.4801369613        2.6646318556        1.3430546324
 H         -2.9964544112        2.7138388772        1.7937692117
 H         -3.4279034318        2.8604742975        0.0807327219
 O         -2.0112619195        0.4676876080        1.7482496805
 C         -1.2240831687       -0.6703045214        1.6765465199
 O         -0.7866645481       -1.0549429715        2.7789199496
 O         -1.3642823594       -1.2030079902       -1.9109405703
 C         -0.0982589777       -2.4856435802        0.4666658589
 C          1.3525539019       -2.1291543090        0.2324744286
 C          2.3592517526       -2.8370800385        0.8813976180
 C          3.6899651324       -2.5355957174        0.6598431877
 C          4.0442303213       -1.5072869769       -0.1955210420
 C          3.0470004606       -0.7906411674       -0.8448073015
 C          1.7124450209       -1.1114607784       -0.6371904612
 H          0.9582055303       -0.5564488988       -1.1716172207
 N          3.3659776596        0.2738373432       -1.7055889912
 S          2.5055339986        1.6997554625       -1.5403338304
 O          1.2199187284        1.6008362218       -2.1800282800
 O          3.3942651577        2.7152256533       -2.0660397503
 C          2.3179591389        1.9130620417        0.2206222597
 C          3.4562240290        2.1201086823        0.9755010795
 C          3.3345938394        2.2537863317        2.3484477896
 C          2.0829003996        2.1774944706        2.9404621399
 C          0.9493809095        1.9771067400        2.1687956102
 C          1.0662847392        1.8397848206        0.7945477401
 H          0.2078436791        1.6732655902        0.1610840503
 H         -0.0225420203        1.9058256391        2.6310780705
 H          1.9851072098        2.2740922501        4.0101673800
 H          4.2124651094        2.4136497021        2.9533454093
 H          4.4106302888        2.1877005532        0.4792265092
 H          4.3555144294        0.4578843740       -1.7917857514
 H          5.0815760411       -1.2606535260       -0.3616727523
 H          4.4596977229       -3.0957023170        1.1678694573
 H          2.0911801034       -3.6239017189        1.5697538378
 H         -0.1766988971       -2.8855713706        1.4876865788
 C         -0.5159363372       -3.5757283901       -0.5034556814
 C         -0.2568337861       -5.0117328200       -0.1659255020
 C         -1.6573999465       -4.4786133811       -0.1486257014
 H         -2.3394755265       -4.7755622413       -0.9309566213
 H         -2.1330498463       -4.3268375318        0.8097683488
 H          0.0287216642       -5.6815067795       -0.9623568323
 H          0.2064890244       -5.2334895600        0.7831104478
 H         -0.4254551978       -3.2772173697       -1.5399674713
