  62
        -98.93692404
 C          1.2311008550        1.2545983626       -0.5317056722
 C          2.5718251320        1.5687402282       -0.2023292871
 C          3.5479540724        0.4829505383       -0.3631913144
 C          3.1364857908       -0.7209059455       -0.8004413058
 C          4.0011659644       -1.9241159423       -1.0706878145
 C          4.7018351187       -2.5502624347        0.1504352562
 C          6.1293853690       -2.0427321857        0.3887749031
 H          6.7563905423       -2.8846763121        0.6894116085
 H          6.5334408456       -1.6737623928       -0.5547751224
 C          6.2833628694       -0.9650382270        1.4662863641
 H          6.2393377024       -1.4361236099        2.4509537340
 H          7.2766029235       -0.5237307986        1.3582124605
 C          5.2403443833        0.1526701512        1.4469495492
 H          4.2958021776       -0.2187718442        1.8512979668
 H          5.5751801836        0.9425481522        2.1223685754
 C          4.9646654266        0.7521695824        0.0541834006
 H          5.6633750447        0.3555930190       -0.6809963307
 H          5.0792995167        1.8375023181        0.0871132324
 H          4.0897911885       -2.3980050090        1.0388243638
 H          4.7498923521       -3.6252832021       -0.0296950938
 H          4.7504562681       -1.6548199143       -1.8186518735
 H          3.3351525974       -2.6642399657       -1.5182528416
 O          1.8360664877       -0.9827079053       -1.1032475722
 C          0.8511805900       -0.0140558724       -0.9709149558
 O         -0.2888283212       -0.4042126701       -1.2793920203
 O          2.9382832655        2.7058598032        0.1992202762
 C          0.1717549368        2.3315635466       -0.3661908708
 C         -0.7507402339        1.9172455911        0.7524645778
 C         -0.3185851172        2.0714447623        2.0679962068
 C         -1.1104260991        1.6646428881        3.1240993210
 C         -2.3427456225        1.0795895081        2.8893423916
 C         -2.7789061462        0.9136744408        1.5799117339
 C         -1.9898181519        1.3406966851        0.5201268414
 H         -2.3527249969        1.2002389354       -0.4833172232
 N         -4.0253437899        0.3270195384        1.3186871863
 S         -4.2964318975       -0.6153892031       -0.0287669810
 O         -4.3767192271        0.2072965479       -1.2098783230
 O         -5.5090942689       -1.3401072228        0.3001013008
 C         -2.9586120614       -1.7881663629       -0.1663498301
 C         -2.3061298643       -2.2384299159        0.9624461298
 C         -1.3147195898       -3.1960739525        0.8245581945
 C         -1.0030185954       -3.6954588435       -0.4292687859
 C         -1.6747957826       -3.2403815368       -1.5514456964
 C         -2.6600289828       -2.2766136675       -1.4205132953
 H         -3.1901935436       -1.8797431088       -2.2714704005
 H         -1.4252254291       -3.6214352363       -2.5289685877
 H         -0.2258396487       -4.4366104463       -0.5333260527
 H         -0.7839305713       -3.5447786496        1.6965727883
 H         -2.5558004166       -1.8373650397        1.9315034016
 H         -4.5151872204       -0.0295136903        2.1259733091
 H         -2.9635899005        0.7567324439        3.7113136555
 H         -0.7658194622        1.7974221200        4.1384076110
 H          0.6520879298        2.5122999560        2.2480750865
 H          0.7176577477        3.2300295616       -0.0464209040
 C         -0.5410901041        2.6338596035       -1.6664108021
 C         -1.3188135232        3.9080846170       -1.7962177736
 C         -0.0315171033        3.7357385226       -2.5439682438
 H         -0.0698333527        3.6006570540       -3.6145456040
 H          0.8341665495        4.2852834650       -2.2039460812
 H         -2.2457254696        3.8902587788       -2.3491543898
 H         -1.3265848255        4.5750127076       -0.9472270598
 H         -0.9330028966        1.7517085715       -2.1585935534
