  62
        -98.94353192
 C         -1.8401704476       -0.3045326836       -0.2619719883
 C         -2.9772867726       -0.5767472026       -1.0585619059
 C         -4.2653181595       -0.5995380265       -0.3530434200
 C         -4.2905038956       -0.3859595238        0.9755540393
 C         -5.5369031703       -0.3317106552        1.8098370595
 C         -6.0807820797        1.1007077776        1.9048577879
 C         -6.1982504020        1.8080673829        0.5547867007
 H         -6.6198952128        2.7979959991        0.7418982309
 H         -5.1978737637        1.9574242001        0.1422631711
 C         -7.0648042547        1.0701283408       -0.4752219432
 H         -7.6977048174        0.3386041943        0.0285033533
 H         -7.7261514072        1.7922670223       -0.9587039956
 C         -6.2751306956        0.3761410202       -1.5865458820
 H         -5.5717239625        1.0834967485       -2.0330401299
 H         -6.9785690489        0.0772582160       -2.3683431116
 C         -5.4969202409       -0.8777573648       -1.1682748622
 H         -6.1621745227       -1.5646737469       -0.6409914575
 H         -5.1469307373       -1.3708590651       -2.0801193082
 H         -7.0598500911        1.0665188966        2.3862073779
 H         -5.4098178657        1.6839498392        2.5395793243
 H         -6.2879589995       -0.9884042882        1.3749854886
 H         -5.2945005794       -0.6861494624        2.8130692097
 O         -3.1745285157       -0.1468345861        1.7103923555
 C         -1.9226869318       -0.0932718429        1.1145288220
 O         -0.9874219057        0.1418645200        1.9016142032
 O         -2.9165514229       -0.7968263444       -2.2989580748
 C         -0.4755241654       -0.2531693171       -0.9223896293
 C          0.4538737640       -1.2760204370       -0.3169590941
 C         -0.0251651855       -2.5560333564       -0.0486632148
 C          0.7973178234       -3.5179235319        0.5032607572
 C          2.1226149644       -3.2320052656        0.7807910997
 C          2.6165033886       -1.9645375969        0.5016933660
 C          1.7826581956       -0.9948789726       -0.0397186736
 H          2.1864109353       -0.0182642397       -0.2480256761
 N          3.9519821887       -1.6396620107        0.7790770592
 S          4.8260073885       -0.6943121230       -0.2875136782
 O          4.4228325091       -0.9198047666       -1.6558417980
 O          6.2106458932       -0.9854297602        0.0199081784
 C          4.4785880620        0.9854490323        0.1886632439
 C          4.4167003137        1.9556047728       -0.7919876518
 C          4.1967675532        3.2729673224       -0.4205061504
 C          4.0431164922        3.5952048879        0.9189159622
 C          4.1098777973        2.6090748570        1.8915366061
 C          4.3344743755        1.2910814690        1.5273616357
 H          4.3880001250        0.5011475008        2.2577065856
 H          3.9862002793        2.8626487369        2.9321221254
 H          3.8686776349        4.6201638034        1.2061699684
 H          4.1446075520        4.0410304915       -1.1760045242
 H          4.5295808658        1.6588512420       -1.8226767496
 H          4.5074563438       -2.3956504780        1.1519383412
 H          2.7679516472       -3.9832159727        1.2103239669
 H          0.4068189293       -4.5024111734        0.7134556383
 H         -1.0579496770       -2.7855708975       -0.2734969442
 H         -0.6473192844       -0.5343021724       -1.9729142165
 C          0.0704869098        1.1591529399       -0.8806992330
 C          0.9755913212        1.6581624668       -1.9657716151
 C         -0.4342616896        2.1576421533       -1.8774531674
 H         -0.6028248086        3.1728057790       -1.5512859902
 H         -1.1489831416        1.8087268965       -2.6086479063
 H          1.7748068444        2.3317948362       -1.6959700030
 H          1.2274634557        0.9737411648       -2.7621270172
 H          0.2458710537        1.5054248642        0.1319556997
