  62
        -98.93359596
 C         -2.5047745493       -1.3958985901        0.3163029709
 C         -2.7920616992       -0.5053323009       -0.7436398897
 C         -3.8791066193        0.4739246192       -0.5188534006
 C         -4.5217060295        0.4797892900        0.6629915494
 C         -5.6203799496        1.3972957302        1.1305960586
 C         -5.1065951998        2.7946391705        1.5111854676
 C         -4.1151151097        3.4035406399        0.5235923473
 H         -3.7540132299        4.3423568703        0.9516237267
 H         -3.2536961997        2.7402393899        0.4257111879
 C         -4.6821237296        3.7087389789       -0.8608955530
 H         -5.5299702497        4.3896993989       -0.7590549436
 H         -3.9031421896        4.2311859386       -1.4222748733
 C         -5.1263848894        2.4974710482       -1.6843563922
 H         -5.2544929893        2.8357349175       -2.7168413424
 H         -6.0964140894        2.1323997884       -1.3579119920
 C         -4.1201022493        1.3517890483       -1.7240264612
 H         -4.4029850991        0.6671204377       -2.5329276908
 H         -3.1396128493        1.7465588682       -2.0148380514
 H         -5.9654866099        3.4582514505        1.6244943171
 H         -4.6077143599        2.7190334713        2.4803926677
 H         -6.3990442695        1.4636158596        0.3766351984
 H         -6.0559280297        0.9337293208        2.0184983189
 O         -4.2007458995       -0.3895534793        1.6635716700
 C         -3.2095528794       -1.3366118193        1.5221490308
 O         -3.0506250994       -2.0671278185        2.5204818113
 H         -0.1835999692       -0.3513875707       -0.8399174895
 C          0.4238606307       -0.8358201201       -0.0893202991
 C         -0.0754792192       -1.9517125897        0.5684833716
 C          0.7238796707       -2.5760229489        1.5183157822
 C          1.9908543506       -2.0938633586        1.7982583220
 C          2.4848093006       -0.9826602890        1.1388416912
 C          1.6934797007       -0.3509964298        0.1881750307
 N          2.1854970906        0.7833373398       -0.4853837101
 S          3.6554279407        0.6140453594       -1.2841068498
 O          3.6486123608        1.6248347986       -2.3187390005
 O          3.8650454509       -0.7486377109       -1.7166639088
 C          4.8626031806        1.0558419304       -0.0523599100
 C          5.8970223106        0.1890238807        0.2408838908
 C          6.8317582205        0.5602132715        1.1950699106
 C          6.7162922203        1.7849722419        1.8344686897
 C          5.6724614402        2.6450671916        1.5266481090
 C          4.7356587004        2.2809148208        0.5728265491
 H          3.9115783603        2.9199690105        0.3025568786
 H          5.5857666801        3.5963979219        2.0264174283
 H          7.4441194001        2.0712608525        2.5771425196
 H          7.6441260205       -0.1065583683        1.4355525612
 H          5.9419728408       -0.7554682097       -0.2773879685
 H          1.5028903807        1.2002159893       -1.1032244205
 H          3.4711290505       -0.6038762488        1.3517850111
 H          2.6008588006       -2.5882984380        2.5386243224
 H          0.3421150307       -3.4394236086        2.0434768227
 C         -1.4455332591       -2.4836819400        0.2354843718
 H         -1.7203059492       -3.2033183395        1.0225121923
 C         -1.4786932189       -3.2334131110       -1.0916873876
 C         -0.3809964688       -3.1879680216       -2.1082625775
 C         -0.5969749988       -4.4291864110       -1.2988469367
 H         -1.0098897886       -5.3013668014       -1.7824905361
 H          0.1265806212       -4.6502137604       -0.5285581864
 H         -0.6662302787       -3.1874482524       -3.1495561176
 H          0.4942505011       -2.5905380814       -1.9031425079
 H         -2.4872716789       -3.3035431914       -1.4869168377
 O         -2.1799322791       -0.4962746516       -1.8450571797
