  62
        -98.93888281
 C          2.4417453202        0.8789519989        0.8364313107
 C          3.3415793803        0.6407409494       -0.2312620894
 C          4.1688965704       -0.5701932606       -0.1124278698
 C          4.0175366204       -1.3749924010        0.9545733199
 C          4.7585318805       -2.6616653110        1.1727722294
 C          3.9901286507       -3.8543299909        0.5865966889
 C          3.5165402508       -3.6383762903       -0.8508371411
 H          2.7682742307       -2.8422058304       -0.8653700108
 H          3.0152369609       -4.5549309203       -1.1693380815
 C          4.6364863609       -3.2973633198       -1.8437013009
 H          4.4935988510       -3.8899590394       -2.7497566111
 H          5.6030510509       -3.5770576399       -1.4229573409
 C          4.6770606008       -1.8297894396       -2.2736551002
 H          3.6844431308       -1.5175049196       -2.6085547702
 H          5.3522669208       -1.7448395392       -3.1293390801
 C          5.1607643406       -0.8364763400       -1.2097125798
 H          5.3240480505        0.1251115402       -1.7049981394
 H          6.1121690405       -1.1756706501       -0.7949404998
 H          3.1135406107       -4.0422101012        1.2107967887
 H          4.6339554608       -4.7346079908        0.6307673286
 H          5.7425943006       -2.5891970107        0.7138433695
 H          4.8786676704       -2.8109314215        2.2471223294
 O          3.1224369303       -1.1279346415        1.9452290799
 C          2.3080197002       -0.0104527216        1.9043346803
 O          1.5151715101        0.0809485279        2.8646752802
 H         -0.5763102798        0.5102378085        1.0664342702
 C         -0.5774491398        1.0041003488        0.1024327604
 C          0.4515383702        1.8898414091       -0.1961773291
 C          0.4515935302        2.5182620396       -1.4338350189
 C         -0.5527486797        2.2533731399       -2.3496539791
 C         -1.5719885296        1.3677904796       -2.0524091395
 C         -1.5839395097        0.7374330191       -0.8139518298
 N         -2.6119336696       -0.1739614511       -0.5042013403
 S         -4.1856277796        0.2973782089       -0.9050919702
 O         -4.4113622394       -0.0132285206       -2.2946635604
 O         -4.4026654198        1.6751022487       -0.5243203697
 C         -5.1543080896       -0.7907866916        0.1200536392
 C         -5.6334209097       -0.3278306322        1.3307589894
 C         -6.3749500497       -1.1839572426        2.1296221289
 C         -6.6202983096       -2.4819946424        1.7077102684
 C         -6.1316464794       -2.9323811519        0.4901756283
 C         -5.3907890594       -2.0812666215       -0.3142231613
 H         -5.0005621593       -2.3838774911       -1.2718852214
 H         -6.3269266693       -3.9415945318        0.1653067478
 H         -7.1990721895       -3.1455795528        2.3305824181
 H         -6.7583815099       -0.8356740730        3.0751754091
 H         -5.4265289999        0.6918631977        1.6140103998
 H         -2.5605036096       -0.4876242815        0.4556533196
 H         -2.3625549595        1.1619962598       -2.7561396997
 H         -0.5417669296        2.7451456503       -3.3108868489
 H          1.2446350802        3.2020278298       -1.6866574785
 C          1.5276636500        2.0947981088        0.8433614911
 H          1.0409786700        2.0950982783        1.8285466010
 C          2.2965146899        3.3887199289        0.6859515817
 C          1.6274766598        4.6822849087        1.0378793721
 C          2.7176973897        4.1401401284        1.9113761220
 H          3.6770542597        4.6353315785        1.9069370523
 H          2.4456524497        3.7253364780        2.8712444518
 H          0.6123218797        4.6345256484        1.4028101420
 H          1.8363687697        5.5524407990        0.4346164025
 H          2.9829909000        3.3820122293       -0.1508015483
 O          3.4638275503        1.3938377398       -1.2314706290
