  62
        -98.94291629
 C         -2.6380513075       -1.1901474511        0.2501120277
 C         -2.7728211551       -0.3274052635       -0.8645191555
 C         -3.7952808680        0.7238625386       -0.7457444650
 C         -4.5394863960        0.8074531268        0.3711499386
 C         -5.5689874721        1.8644617986        0.6437035267
 C         -4.9504558551        3.0679850308        1.3688055256
 C         -3.6691437578        3.5898558886        0.7184802304
 H         -3.3414955321        4.4568952165        1.2960342151
 H         -2.8884690685        2.8307700384        0.8084549981
 C         -3.8219727134        3.9867456096       -0.7565577317
 H         -4.8766815459        4.1280379572       -0.9952256362
 H         -3.3226861098        4.9449235662       -0.9151652703
 C         -3.2077509960        2.9957065059       -1.7470475853
 H         -2.1764105977        2.7791447056       -1.4563712284
 H         -3.1768626659        3.4726868048       -2.7304455429
 C         -3.9533375346        1.6647005494       -1.9074579808
 H         -5.0094220547        1.8560266500       -2.1074928815
 H         -3.5285095243        1.1480586529       -2.7731478016
 H         -5.6931791919        3.8669158767        1.4062370443
 H         -4.7173316857        2.7717910653        2.3941077592
 H         -6.0140381729        2.1826882491       -0.2970054176
 H         -6.3466959636        1.4315531668        1.2750471935
 O         -4.3988047602       -0.0496349120        1.4130644038
 C         -3.4501562524       -1.0549312263        1.3824131793
 O         -3.4283852939       -1.7640923670        2.4079182652
 H         -0.0754689735       -0.6509723543       -1.1346341809
 C          0.4214140543       -0.9806668025       -0.2340955317
 C         -0.2425803766       -1.8380445687        0.6315041582
 C          0.4093164579       -2.2490720267        1.7883256991
 C          1.6910573413       -1.8089775459        2.0686381959
 C          2.3461329278       -0.9477334575        1.2066465130
 C          1.7033583582       -0.5302733287        0.0485756922
 N          2.3451451166        0.3662281451       -0.8227578207
 S          3.9186807630        0.0349600254       -1.2996487370
 O          4.0907036623        0.7317457751       -2.5555911270
 O          4.1827449510       -1.3853753155       -1.3119592272
 C          4.9173678793        0.8298209172       -0.0577918403
 C          5.8944621205        0.1120362437        0.6036363152
 C          6.6702020428        0.7554176278        1.5555709592
 C          6.4567697819        2.0981807275        1.8267082008
 C          5.4725154195        2.8054347384        1.1521925399
 C          4.6945719315        2.1685530911        0.1986378106
 H          3.9220196903        2.6824245271       -0.3489434957
 H          5.3091841502        3.8494203234        1.3662789265
 H          7.0607975693        2.5969035627        2.5681512413
 H          7.4357637966        0.2074284069        2.0810023691
 H          6.0203200730       -0.9317734104        0.3637763147
 H          1.7762413047        0.6305876833       -1.6144313267
 H          3.3436066791       -0.6002397398        1.4211338056
 H          2.1850211076       -2.1373854318        2.9703672524
 H         -0.1005766086       -2.9103851899        2.4738249725
 C         -1.6341456800       -2.3319194103        0.3121392322
 H         -1.9623359685       -2.9643076615        1.1477506690
 C         -1.6244550641       -3.1778528449       -0.9474462267
 C         -1.1205672682       -4.5862291809       -0.8725055723
 C         -2.5828549022       -4.3221493841       -1.0690567586
 H         -3.0216518329       -4.5262153323       -2.0342152595
 H         -3.2500948968       -4.5046746784       -0.2389971751
 H         -0.5499979298       -4.9734587756       -1.7028421877
 H         -0.7968890741       -4.9513661022        0.0904643535
 H         -1.4094663291       -2.6134379184       -1.8452188881
 O         -2.0863089977       -0.4049253231       -1.9201069028
