  62
        -98.94792664
 C         -0.9480360587       -1.0417870164        0.7101840713
 C         -1.5133920332       -0.9009754564       -0.5801305766
 C         -2.2244244582        0.3591332377       -0.8278596039
 C         -2.2608706851        1.3064645971        0.1259621239
 C         -2.9105017648        2.6591738603        0.0069580651
 C         -4.4192249752        2.6573162674        0.2893232499
 C         -5.2855218936        2.0240307451       -0.7999219735
 H         -6.3218030131        2.2862622960       -0.5777139872
 H         -5.0367677398        2.4683448464       -1.7642766661
 C         -5.1720230537        0.4959147298       -0.8909719964
 H         -4.7250561764        0.1082021925        0.0271467332
 H         -6.1705800602        0.0605933541       -0.9709268811
 C         -4.3612700953       -0.0094060816       -2.0846101403
 H         -4.8688118542        0.2588284218       -3.0139206756
 H         -4.3124137990       -1.0998932271       -2.0301859980
 C         -2.9241337477        0.5251395842       -2.1420259606
 H         -2.3665661491       -0.0504056871       -2.8855763888
 H         -2.9209014197        1.5722942362       -2.4459299311
 H         -4.5954065876        2.1453114235        1.2379475267
 H         -4.7286858529        3.6980750592        0.4095770325
 H         -2.4250774755        3.3047622715        0.7423090654
 H         -2.7231247760        3.0668052614       -0.9874567593
 O         -1.6703594998        1.1478343337        1.3409229919
 C         -1.0016991356       -0.0238862796        1.6607113664
 O         -0.5000348513       -0.0333650466        2.8030887196
 H          1.4600459005       -0.3386163458        0.3206093901
 C          1.7446484150       -1.2677348719       -0.1516861293
 C          1.0124276332       -2.4167044541        0.1188243432
 C          1.4005168342       -3.6067857502       -0.4819955041
 C          2.4758598958       -3.6294149372       -1.3539310956
 C          3.1731940641       -2.4736414997       -1.6542012617
 C          2.7998129071       -1.2797277742       -1.0472688758
 N          3.4830707461       -0.0813623606       -1.3056160277
 S          2.6204085936        1.3513631551       -1.3853483530
 O          1.3053295685        1.1643444129       -1.9525748904
 O          3.4967835895        2.2517391514       -2.1074184896
 C          2.4981406414        1.9040825475        0.3014118978
 C          3.6029479536        1.8085236849        1.1237938185
 C          3.5020901952        2.2594505522        2.4300041096
 C          2.3087459071        2.7976130124        2.8873176096
 C          1.2114262210        2.8939532880        2.0464097950
 C          1.3065250769        2.4458771110        0.7391580683
 H          0.4722531279        2.4844784838        0.0549559135
 H          0.2785239493        3.2982901834        2.4052422995
 H          2.2282713133        3.1397871049        3.9069285052
 H          4.3516202250        2.1855934984        3.0897738463
 H          4.5111933295        1.3792433486        0.7349626803
 H          4.1905726463       -0.1362824252       -2.0240530933
 H          3.9951256451       -2.4900531428       -2.3536202092
 H          2.7647228101       -4.5591459841       -1.8203118054
 H          0.8552020802       -4.5136799818       -0.2781486162
 C         -0.1621361185       -2.2928280119        1.0598558701
 H          0.2292814851       -2.1330029501        2.0755169546
 C         -1.0640844390       -3.5089435265        1.0681409543
 C         -0.7601677127       -4.6689667033        1.9667617644
 C         -1.9169677198       -3.7671609732        2.2726385514
 H         -2.9188939665       -4.1412072839        2.1246985269
 H         -1.8259479495       -3.0782625438        3.1000150512
 H         -0.9708793803       -5.6661922848        1.6108542118
 H          0.1146940924       -4.5990215611        2.5951912441
 H         -1.4969322716       -3.7112159594        0.0952169803
 O         -1.4325327440       -1.7801532563       -1.4773724152
