  62
        -98.95113005
 C         -1.9898379554       -0.9146195238        0.1138946420
 C         -1.5254090826       -1.8431873349       -0.8495888760
 C         -0.4827977431       -2.7745436170       -0.3981707967
 C         -0.0654454157       -2.7258180375        0.8797934986
 C          1.0120487995       -3.5889266556        1.4681175757
 C          2.3892070636       -2.9185829527        1.3721365166
 C          2.7298450281       -2.3906253337       -0.0213827629
 H          2.0747973475       -1.5519172212       -0.2681345867
 H          3.7460139995       -1.9908191953        0.0208003035
 C          2.6377031235       -3.4344872918       -1.1428368181
 H          3.5095731722       -3.3254539229       -1.7912618191
 H          2.6669935053       -4.4410668466       -0.7227021036
 C          1.4024893377       -3.2870428415       -2.0341863563
 H          1.3069828440       -2.2429027722       -2.3463533226
 H          1.5578584870       -3.8861688517       -2.9359691725
 C          0.0735021717       -3.7346517508       -1.4103218093
 H         -0.6690614169       -3.7892415332       -2.2120705940
 H          0.1863646157       -4.7319324709       -0.9787406081
 H          2.4188256652       -2.0775542496        2.0685664603
 H          3.1448454426       -3.6439339571        1.6794141639
 H          0.7757831529       -3.7599355691        2.5198493520
 H          1.0253384826       -4.5453559418        0.9490698192
 O         -0.5663557610       -1.8511940203        1.7880528263
 C         -1.5052564182       -0.8951989200        1.4212484974
 O         -1.8179565069       -0.1126882848        2.3380608603
 O         -1.9659552741       -1.8898422489       -2.0301925603
 C         -2.9794436082        0.1559914585       -0.3163054370
 C         -2.2805978430        1.4932525725       -0.2519769431
 C         -2.7396156983        2.5787728851        0.4814920044
 C         -1.9992602018        3.7478382313        0.5326693564
 C         -0.7879660764        3.8527818145       -0.1260088478
 C         -0.3246903355        2.7758118820       -0.8749049088
 C         -1.0846943438        1.6197679590       -0.9499676673
 H         -0.7253255107        0.7904574300       -1.5422600230
 N          0.8989700747        2.8493514405       -1.5652363606
 S          2.0237785582        1.6166706136       -1.4613157134
 O          3.1889988048        2.1363318225       -2.1425905355
 O          1.4714278702        0.3936051681       -1.9816161584
 C          2.3846035651        1.4438661152        0.2758931121
 C          1.4592687160        0.8193950834        1.0870113554
 C          1.7144162022        0.7131319271        2.4445253361
 C          2.8922498291        1.2264698635        2.9656774309
 C          3.8151393849        1.8487868881        2.1380428753
 C          3.5593096911        1.9655209456        0.7811944572
 H          4.2481148497        2.4392387100        0.1006372455
 H          4.7307390237        2.2447420380        2.5468879413
 H          3.0892636838        1.1388371547        4.0225423114
 H          0.9805442759        0.2341132275        3.0747285303
 H          0.5518366684        0.4246299049        0.6576844683
 H          1.3628584311        3.7434017017       -1.4887741188
 H         -0.2043640481        4.7587886239       -0.0659293393
 H         -2.3639951892        4.5843901411        1.1089550333
 H         -3.6696064213        2.5070805548        1.0205183303
 H         -3.2036072929       -0.0621728241       -1.3710015343
 C         -4.2620973115        0.0872767377        0.4821797722
 C         -5.5325813703        0.6315547047       -0.0972112667
 C         -5.3439011769       -0.8487943553        0.0369305186
 H         -5.9100807306       -1.3767913787        0.7894194214
 H         -5.1640316990       -1.4265923356       -0.8581583939
 H         -6.2336464645        1.1195172476        0.5627405001
 H         -5.4865805592        1.0599092672       -1.0871293830
 H         -4.0990415273        0.1887247919        1.5486644882
