  62
        -98.94121115
 C         -2.7087053584       -0.2387238751       -0.4353235173
 C         -2.9474547736        0.6760724190        0.6249177394
 C         -2.6053710047        2.0773243150        0.3707307244
 C         -2.1236255413        2.4343394272       -0.8330360047
 C         -1.6959264098        3.8158896181       -1.2447189301
 C         -0.2564467105        4.1489510816       -0.8272162555
 C         -0.0653420126        4.4355212847        0.6628899464
 H          0.9207147711        4.8899097741        0.7775397274
 H         -0.8043429949        5.1672682931        0.9921238011
 C         -0.1351724000        3.1899941925        1.5580145935
 H          0.0175873747        2.2928239577        0.9511571237
 H          0.6856219705        3.2121646214        2.2795892746
 C         -1.4315983382        3.0493860977        2.3573364795
 H         -1.5004581615        3.8619117055        3.0846755354
 H         -1.3868863046        2.1056772509        2.9076525076
 C         -2.7104076515        3.0456999897        1.5094401296
 H         -3.5398037355        2.7245782011        2.1444881016
 H         -2.9192274163        4.0487342705        1.1383020698
 H          0.3927738569        3.3183110603       -1.1169655587
 H          0.0530621881        5.0324266125       -1.3906884356
 H         -1.7579719089        3.8513339794       -2.3344220221
 H         -2.3804965966        4.5564750584       -0.8305959584
 O         -1.9707758289        1.5441262223       -1.8449059691
 C         -2.1894923883        0.1864515388       -1.6579629020
 O         -1.8915448333       -0.4988735053       -2.6590041166
 O         -3.4202862810        0.3268060256        1.7397958029
 C         -2.8999281821       -1.7086838159       -0.0939871888
 C         -1.6043280762       -2.2087068616        0.5035079903
 C         -1.5538330458       -2.8079474670        1.7557133444
 C         -0.3391338805       -3.1401917402        2.3320177997
 C          0.8496875052       -2.8588544811        1.6820567862
 C          0.8049741449       -2.2770611669        0.4242065657
 C         -0.4108354224       -1.9804233014       -0.1664144679
 H         -0.4249799308       -1.5142925573       -1.1415407178
 N          2.0227512374       -1.8896069113       -0.2091895480
 S          2.3960819693       -0.2918789837        0.2322040918
 O          2.2621832382       -0.1843909404        1.6627464495
 O          1.6264700598        0.6437247247       -0.5614850402
 C          4.1188656572       -0.2105169529       -0.2185374714
 C          4.5172871186        0.5261159906       -1.3161167044
 C          5.8601150907        0.5401987303       -1.6615837364
 C          6.7736613658       -0.1828683968       -0.9102869357
 C          6.3570614053       -0.9200091234        0.1886594033
 C          5.0172054472       -0.9363423386        0.5398915775
 H          4.6462113537       -1.4879855828        1.3874247618
 H          7.0707845475       -1.4807143072        0.7703388993
 H          7.8171606035       -0.1710095831       -1.1826433391
 H          6.1861202693        1.1132469938       -2.5147007415
 H          3.7716538194        1.0743858027       -1.8697767219
 H          1.9157784116       -1.8884286519       -1.2169168603
 H          1.8035952339       -3.0610439483        2.1401898625
 H         -0.3182798804       -3.5959804871        3.3101806590
 H         -2.4735975388       -2.9808697107        2.2948372686
 H         -3.6633009363       -1.7338335550        0.6956588124
 C         -3.3596914929       -2.5873127432       -1.2373696754
 C         -4.0551063863       -3.8774416246       -0.9245646969
 C         -4.8259244673       -2.7325223653       -1.5080168392
 H         -5.1531026408       -2.7952186061       -2.5346677749
 H         -5.5074611457       -2.1951420194       -0.8649108685
 H         -3.8534659293       -4.7334547485       -1.5496496579
 H         -4.2182147718       -4.1193522492        0.1145817869
 H         -2.6974940835       -2.5645350786       -2.0925656819
