  62
        -98.93681183
 C          1.8811700594        1.2311698310       -0.1683931506
 C          2.3109876898        0.0017935411       -0.7222766305
 C          3.7595645200       -0.2593448383       -0.6651772006
 C          4.5726963897        0.6570655121       -0.1097212809
 C          6.0532492698        0.5017704427        0.0930219789
 C          6.3262605103       -0.4181859670        1.3002139590
 C          7.0085898708       -1.7392243668        0.9445890691
 H          8.0643318707       -1.5499514864        0.7394211689
 H          6.9541654412       -2.3828222367        1.8251788192
 C          6.4253848309       -2.4889496172       -0.2570627007
 H          6.7931048106       -2.0428803972       -1.1823453809
 H          6.8238681313       -3.5051609870       -0.2221069207
 C          4.8943872409       -2.5630329078       -0.3234338705
 H          4.4589601210       -2.4545634679        0.6702075396
 H          4.6174477013       -3.5559427580       -0.6839104803
 C          4.2442785004       -1.5441209182       -1.2780683005
 H          4.9329166702       -1.3209562380       -2.0979530907
 H          3.3497430105       -1.9981090686       -1.7153806003
 H          6.9531973102        0.1062088033        2.0228767388
 H          5.3755251105       -0.6211510473        1.7976288992
 H          6.5067708498        0.0956696028       -0.8083833611
 H          6.4624594194        1.4960601329        0.2727934787
 O          4.1193502893        1.8254668720        0.4145833390
 C          2.7714109191        2.1407000814        0.4031523892
 O          2.4953512188        3.2399123614        0.9243087791
 H         -1.4651183401       -0.2961721005       -0.9531072399
 C         -1.2656836699       -0.2916044102        0.1045113101
 C         -0.3562403902        0.5985538502        0.6512499199
 C         -0.1038165900        0.5423654305        2.0206988198
 C         -0.7410907895       -0.3866464897        2.8188104000
 C         -1.6483613192       -1.2761694301        2.2688251103
 C         -1.9051231294       -1.2317230504        0.9039999103
 N         -2.7960177391       -2.1474488308        0.3240282006
 S         -3.9187187095       -1.6867321114       -0.8220388293
 O         -4.8061696891       -2.8236225318       -0.9297313290
 O         -3.2668664398       -1.2666489713       -2.0351261594
 C         -4.7859175299       -0.3181505817       -0.0762958594
 C         -4.3413150605        0.9703630085       -0.2928145996
 C         -4.9928450508        2.0171696783        0.3406113704
 C         -6.0695925206        1.7596496680        1.1748793106
 C         -6.5050724400        0.4591548678        1.3806691008
 C         -5.8560337097       -0.5917853220        0.7536422608
 H         -6.1683872393       -1.6162048421        0.8764018710
 H         -7.3455144899        0.2623768476        2.0266395410
 H         -6.5734255108        2.5780295178        1.6646077505
 H         -4.6560707012        3.0287941884        0.1790537102
 H         -3.5042234007        1.1344413987       -0.9507012097
 H         -3.1995931588       -2.8063095609        0.9735091608
 H         -2.1422518988       -2.0089818502        2.8887266205
 H         -0.5334345193       -0.4196512094        3.8777269200
 H          0.6111878498        1.2344859608        2.4450487496
 C          0.4076523293        1.6064763304       -0.1719110104
 H          0.3467616690        2.5784986304        0.3376645995
 C         -0.1006821910        1.7705880700       -1.5879035703
 C         -1.2861697214        2.6466146995       -1.8557875103
 C          0.0835549484        3.0903450000       -2.2723277506
 H          0.3287280282        3.0957693199       -3.3238035006
 H          0.5600184181        3.8795274602       -1.7087515007
 H         -1.7387108015        3.1438042294       -1.0108574103
 H         -1.9832918014        2.3485628291       -2.6251576601
 H          0.0215821993        0.8792221700       -2.1920405602
 O          1.5324265601       -0.8385689793       -1.2443442402
