  62
        -98.94554470
 C         -2.6612587397       -1.0179806320        0.2488808508
 C         -2.4779091501       -0.2626271223       -0.9352930794
 C         -3.0256064309        1.1014883174       -0.9145006799
 C         -3.6684230311        1.5387656174        0.1835155800
 C         -4.2211028419        2.9227597672        0.3612026395
 C         -3.1875043024        3.8518422179        1.0134505792
 C         -1.8074310423        3.8012072885        0.3563843293
 H         -1.1683976927        4.5165054290        0.8795030490
 H         -1.3659899018        2.8130974188        0.5120898696
 C         -1.8062377125        4.1185602880       -1.1454261308
 H         -0.9785324429        4.7988950884       -1.3563377811
 H         -2.7294295028        4.6328106074       -1.4163047110
 C         -1.6187941218        2.8992293878       -2.0505750904
 H         -0.7421518115        2.3317195584       -1.7229633303
 H         -1.4120314620        3.2576718676       -3.0627377606
 C         -2.8178013613        1.9455553971       -2.1396678701
 H         -3.7204705616        2.5119227465       -2.3781511503
 H         -2.6228087109        1.2446398970       -2.9565172099
 H         -3.5693826629        4.8736078077        0.9778753689
 H         -3.0769399522        3.5665461383        2.0623039293
 H         -4.5185863221        3.3166629267       -0.6083749406
 H         -5.0996186518        2.8627238169        1.0057813595
 O         -3.8431713807        0.7757313777        1.2935028302
 C         -3.3185763000       -0.5054664420        1.3656620106
 O         -3.4979026597       -1.0744881118        2.4624901208
 H         -0.4335831799       -0.7104859004        1.5643117407
 C          0.1173179104       -1.3385379103        0.8727587709
 C         -0.5680717390       -2.3091444409        0.1515817312
 C          0.1505905314       -3.1085033908       -0.7263054485
 C          1.5122455113       -2.9181876601       -0.8914570485
 C          2.1846376108       -1.9363040795       -0.1875099389
 C          1.4770405803       -1.1400474296        0.7038362709
 N          2.1539756198       -0.1314590190        1.4240700706
 S          2.8094735291        1.1066396710        0.4866501602
 O          2.9141118585        2.2425801714        1.3775454698
 O          2.0534887790        1.3101682002       -0.7273689199
 C          4.4420924594        0.5078387418        0.1087118104
 C          5.2902885896        0.2329108526        1.1637323405
 C          6.5619728798       -0.2454514768        0.8920070706
 C          6.9618001100       -0.4372659970       -0.4223918793
 C          6.0994068598       -0.1526417278       -1.4701404994
 C          4.8250878496        0.3252461916       -1.2052733796
 H          4.1163869494        0.5523333209       -1.9857247596
 H          6.4119494399       -0.3025874180       -2.4910535893
 H          7.9514915902       -0.8114509966       -0.6315988092
 H          7.2353560700       -0.4680562062        1.7039464607
 H          4.9388927495        0.3992538227        2.1683325004
 H          1.5850439996        0.2752008409        2.1541137704
 H          3.2424745307       -1.7794707290       -0.3217619789
 H          2.0565367717       -3.5405718601       -1.5851235783
 H         -0.3578724382       -3.8704100013       -1.2937486883
 C         -2.0612327090       -2.4096499517        0.3534244513
 H         -2.2480138988       -2.7468509014        1.3835652814
 C         -2.7445755484       -3.3612764524       -0.6049546884
 C         -2.8033590277       -4.8265494423       -0.2968452780
 C         -4.0419381981       -3.9892468029       -0.1965132982
 H         -4.8123614880       -4.1119742736       -0.9427569082
 H         -4.4214084683       -3.7474066928        0.7858770917
 H         -2.3450325075       -5.1631925417        0.6207039521
 H         -2.7268408973       -5.5287690725       -1.1130860677
 H         -2.6400964486       -3.0555809826       -1.6394272185
 O         -1.8867333199       -0.7018394423       -1.9551234393
