  62
        -98.93700525
 C         -1.5702708405       -1.4388776193       -0.6940977420
 C         -1.4371583505       -0.0289966594       -0.6150804003
 C         -2.6962201104        0.7296383605       -0.5114216494
 C         -3.8717454205        0.0790774406       -0.5250315103
 C         -5.2165487604        0.7269990605       -0.3709043695
 C         -5.6399958205        0.7807221388        1.1038009505
 C         -4.5609719805        1.3298749376        2.0374814912
 H         -4.9824361905        1.3468768064        3.0450586712
 H         -3.7175329705        0.6356304075        2.0546725404
 C         -4.0560616704        2.7323311980        1.6702553629
 H         -4.7703873703        3.2195093489        1.0055203834
 H         -3.9999549904        3.3324748269        2.5809770636
 C         -2.6665753304        2.7605445087        1.0301560530
 H         -1.9660303804        2.1944788279        1.6491325823
 H         -2.3255153603        3.7988411987        1.0113983342
 C         -2.5827877504        2.2245384404       -0.4042127877
 H         -3.3363638903        2.7132651712       -1.0246897071
 H         -1.5926978103        2.4757409108       -0.7953076773
 H         -6.5394378605        1.3942529087        1.1828641112
 H         -5.8904783006       -0.2318277716        1.4290566793
 H         -5.1796805004        1.7323583310       -0.7858466683
 H         -5.9480621804        0.1399594412       -0.9287946003
 O         -3.9628130005       -1.2714596892       -0.6325641219
 C         -2.8260015206       -2.0557817792       -0.7022056528
 O         -3.0612725906       -3.2804395291       -0.7725849842
 O         -0.3468566904        0.5926673306       -0.6276968995
 C         -0.3804074006       -2.3936941793       -0.7678329331
 C          0.5071116794       -2.2295099408        0.4406727671
 C          0.3024636793       -3.0887381220        1.5197141361
 C          1.0426502793       -2.9668548435        2.6801222063
 C          2.0142742993       -1.9882687537        2.7918106875
 C          2.2241030794       -1.1206522624        1.7273273185
 C          1.4749294294       -1.2443575210        0.5644103583
 H          1.6377513595       -0.5370541800       -0.2267791508
 N          3.1677805594       -0.0914724426        1.8205592498
 S          3.9737603095        0.4708450490        0.4713278805
 O          4.2904683095       -0.6053651999       -0.4395781608
 O          5.1124774495        1.1841121183        1.0150138114
 C          2.8732600796        1.6436056400       -0.2877315682
 C          2.8144007297        1.7130655116       -1.6644585581
 C          1.9791663297        2.6490892524       -2.2521306470
 C          1.2232455598        3.4942629815       -1.4565326160
 C          1.2968644997        3.4127772198       -0.0752004161
 C          2.1314469496        2.4816275291        0.5187046528
 H          2.2031483496        2.3837473278        1.5893627927
 H          0.6971817697        4.0641957591        0.5405215446
 H          0.5650729598        4.2147541020       -1.9172030352
 H          1.9122267598        2.7056163637       -3.3272063369
 H          3.4049287996        1.0231209823       -2.2472057089
 H          3.7417762894       -0.0911624136        2.6498937898
 H          2.5975910293       -1.8905342948        3.6948601476
 H          0.8665023592       -3.6429093044        3.5032646055
 H         -0.4573118007       -3.8543195619        1.4422687152
 H         -0.8381067807       -3.3900620194       -0.6732219543
 C          0.2709564695       -2.3936652977       -2.1485444431
 C          0.9356425895       -1.2193001169       -2.8006274216
 C          1.7496344995       -2.4112114974       -2.3988748430
 H          2.1205294395       -3.0612007465       -3.1783358238
 H          2.4248868094       -2.3077875785       -1.5631176129
 H          0.7439560796       -1.0586169157       -3.8526236115
 H          1.0262876796       -0.3054952276       -2.2370919706
 H         -0.3205496606       -3.0056804768       -2.8260458438
