  62
        -98.94010443
 C         -1.5000391169       -1.1819447246        0.2084832668
 C         -2.5287993400       -0.7394471976        1.0735260806
 C         -3.0991464409        0.5898264516        0.8007649360
 C         -2.5783801853        1.3296772314       -0.1932064324
 C         -3.0352856569        2.6836820320       -0.6610143943
 C         -4.0368591717        2.5504302064       -1.8209211128
 C         -5.4959032746        2.3859868481       -1.3966520690
 H         -5.8604028733        3.3329666387       -0.9933666553
 H         -6.0735216303        2.1690586216       -2.2980761122
 C         -5.7593179741        1.2837281015       -0.3673117851
 H         -6.8158253591        1.0155583671       -0.4271687380
 H         -5.1845289479        0.3927740184       -0.6264793844
 C         -5.4373771790        1.7113607437        1.0725160042
 H         -6.2929118202        1.4919588988        1.7145987064
 H         -5.2991393154        2.7920982843        1.1004560720
 C         -4.2202204636        1.0208744664        1.7068959705
 H         -4.5418309469        0.1013272095        2.2065511098
 H         -3.8061913116        1.6693440426        2.4870092363
 H         -3.7312310408        1.6957215272       -2.4297831368
 H         -3.9655922376        3.4408788123       -2.4486759824
 H         -3.4579325451        3.2517669455        0.1625375877
 H         -2.1443075334        3.2021608214       -1.0221176972
 O         -1.5533930695        0.8904484755       -0.9699575861
 C         -0.9804875313       -0.3556148908       -0.7878549681
 O         -0.0430905125       -0.5994963768       -1.5715055518
 O         -2.9572217147       -1.4310334870        2.0382797023
 C         -0.8822742228       -2.5428123564        0.4762684016
 C          0.6219976820       -2.4305825693        0.4692599638
 C          1.4616231118       -3.2623731808       -0.2599553658
 C          2.8340631668       -3.0817222970       -0.2248282112
 C          3.3950430453       -2.0562860472        0.5131057781
 C          2.5621847904       -1.2176004310        1.2446316015
 C          1.1946178665       -1.4272445348        1.2426610915
 H          0.5627886106       -0.7635983904        1.8162383967
 N          3.0718387567       -0.1241566983        1.9813225380
 S          2.6924713555        1.3922677245        1.3687727577
 O          3.3436179875        2.3332982150        2.2561519338
 O          1.2645187443        1.5234095335        1.2367489270
 C          3.5034189723        1.4278207009       -0.2205300029
 C          2.9139138887        0.8011974739       -1.3001348564
 C          3.6045037544        0.7642042213       -2.5029153417
 C          4.8588496068        1.3449308395       -2.6049008815
 C          5.4352544570        1.9710128944       -1.5095356753
 C          4.7553169054        2.0083474209       -0.3035208810
 H          5.1607187544        2.4842630256        0.5749068764
 H          6.4097446804        2.4250554964       -1.5905540552
 H          5.3886353991        1.3101526944       -3.5438162896
 H          3.1496114045        0.2756846562       -3.3496794358
 H          1.9339241547        0.3587580523       -1.2035663895
 H          4.0715256518       -0.1703556032        2.1300778884
 H          4.4630282451       -1.8973482304        0.5191141814
 H          3.4728228345       -3.7359760471       -0.7980994003
 H          1.0425759611       -4.0420959413       -0.8742761316
 H         -1.1963939602       -2.7851112650        1.5061262046
 C         -1.4139351838       -3.6577013670       -0.4128131069
 C         -2.7495912593       -3.5434631736       -1.0830232305
 C         -1.4960838937       -3.5146361480       -1.9021847475
 H         -1.2662933150       -4.3745111491       -2.5141533883
 H         -1.1806332139       -2.5752463396       -2.3280148267
 H         -3.3771004664       -4.4210217060       -1.1270435369
 H         -3.2979366052       -2.6215129731       -0.9530996344
 H         -1.1570146821       -4.6406253840       -0.0302301201
