  62
        -98.93926617
 C         -2.4783293906       -0.8531710600        0.7851402091
 C         -3.2307890505       -0.4929946797       -0.3596736308
 C         -3.9518251503        0.7838373404       -0.2700120006
 C         -3.8634256402        1.5293138203        0.8461188995
 C         -4.5636297700        2.8373627203        1.0967683096
 C         -3.8331112098        4.0587694403        0.5220891698
 C         -3.8839369198        4.1903696805       -1.0005797302
 H         -4.9193519298        4.1229999207       -1.3357241502
 H         -3.5261729396        5.1918098405       -1.2477805401
 C         -3.0291451700        3.1614687405       -1.7540864303
 H         -2.3072521900        2.7123273003       -1.0677864804
 H         -2.4549338399        3.6655138505       -2.5347042703
 C         -3.8273649501        2.0460243707       -2.4291189405
 H         -3.1213022103        1.3539894306       -2.8956543506
 H         -4.4551209301        2.4691210509       -3.2165398104
 C         -4.7182514503        1.2407658407       -1.4743153106
 H         -5.5822123702        1.8336386908       -1.1747744305
 H         -5.0687540304        0.3506663308       -2.0023978107
 H         -2.7915724598        4.0292051601        0.8502014398
 H         -4.2940873896        4.9482032903        0.9577002399
 H         -4.6269829100        2.9528750002        2.1809358497
 H         -5.5752649400        2.7935229006        0.6924778296
 O         -3.1127921802        1.1558949200        1.9171436594
 C         -2.3870548904       -0.0230156301        1.9027918392
 O         -1.7073041005       -0.2185492104        2.9322723092
 O         -3.3099207707       -1.1951766395       -1.4000058309
 C         -1.6841953608       -2.1489777201        0.8157690890
 C         -0.5499767908       -2.0487563302       -0.1764266510
 C         -0.4558916309       -2.8233858600       -1.3235983011
 C          0.6065441591       -2.6520242301       -2.1954641611
 C          1.5925309992       -1.7172388203       -1.9418140610
 C          1.5132532694       -0.9430396504       -0.7902383309
 C          0.4486546094       -1.1159840804        0.0810265991
 H          0.3798577795       -0.5145168505        0.9796888691
 N          2.5097482295        0.0177172894       -0.5239659108
 S          4.1109949695       -0.4969271708       -0.7094222209
 O          4.4514931795       -0.4244861607       -2.1081125109
 O          4.2919069393       -1.7873888910       -0.0826437511
 C          4.9963608297        0.7605692289        0.1897916493
 C          5.2853863999        1.9539932289       -0.4442227906
 C          5.9618576100        2.9382567387        0.2585149596
 C          6.3357874100        2.7141680885        1.5752852995
 C          6.0397020798        1.5107356785        2.1976110294
 C          5.3616833296        0.5226549787        1.5011273692
 H          5.1194172195       -0.4311862314        1.9420738991
 H          6.3343155298        1.3380032483        3.2202387093
 H          6.8644332801        3.4807496583        2.1194722096
 H          6.1966932302        3.8741769287       -0.2221933503
 H          4.9845674099        2.0789883991       -1.4712523605
 H          2.3785440796        0.4497409293        0.3810309893
 H          2.4269208793       -1.5827719303       -2.6110762810
 H          0.6672089390       -3.2568052400       -3.0878766212
 H         -1.2170279010       -3.5536516499       -1.5419569912
 H         -1.2428177608       -2.2070516003        1.8209609389
 C         -2.5818605710       -3.3497410499        0.6113355688
 C         -2.1177572412       -4.7030890501        1.0558779186
 C         -3.2075429311       -4.0002126000        1.8068619987
 H         -4.2172289012       -4.3725957198        1.7209246187
 H         -2.9765490610       -3.5868106101        2.7780727788
 H         -2.3790286414       -5.5615667499        0.4561529385
 H         -1.1438840912       -4.7691978603        1.5173959986
 H         -3.1807357410       -3.2840422797       -0.2885346412
