  62
        -98.94557577
 C          2.5044668393        1.1775923887       -0.0089818098
 C          3.1471379691        0.3362900786        0.9301835302
 C          3.7502947688       -0.8862293816        0.3893397402
 C          3.6686744687       -1.1433668816       -0.9289868498
 C          4.2413577783       -2.3436610518       -1.6327590598
 C          3.3320348880       -3.5796225016       -1.5901956697
 C          3.2445841579       -4.2760650315       -0.2315190397
 H          2.7548341576       -5.2379059014       -0.3956627396
 H          4.2504392979       -4.4799812217        0.1369861103
 C          2.4541545881       -3.4972330712        0.8295652403
 H          1.8415518083       -2.7349486711        0.3398928003
 H          1.7643146080       -4.1738788910        1.3399836104
 C          3.3189634484       -2.8338573014        1.9022945203
 H          3.8318175882       -3.6029230615        2.4838576703
 H          2.6615959986       -2.2828051712        2.5801110503
 C          4.3654837786       -1.8539014817        1.3550118502
 H          4.7671802288       -1.2789982718        2.1929255701
 H          5.1803120684       -2.3999575219        0.8809839402
 H          2.3295928581       -3.2883410413       -1.9145239297
 H          3.7208652978       -4.2963076517       -2.3171908997
 H          4.3798326683       -2.0549085119       -2.6767611198
 H          5.2141973783       -2.5907163220       -1.2071206298
 O          3.0470760088       -0.3065687615       -1.8010487098
 C          2.4198002691        0.8521506587       -1.3631387198
 O          1.8458296693        1.4932247588       -2.2628544698
 O          3.2057136693        0.5906031586        2.1641178002
 C          1.8026385196        2.4289926689        0.4908036702
 C          0.3163527696        2.2590399893        0.2899923103
 C         -0.4791527502        3.1493797995       -0.4171314497
 C         -1.8279732503        2.8914107598       -0.5963889996
 C         -2.4108156606        1.7517637700       -0.0740271396
 C         -1.6248903607        0.8578371598        0.6423486204
 C         -0.2774267807        1.1202268295        0.8227895203
 H          0.3357407592        0.4188612993        1.3765310903
 N         -2.2110943510       -0.3065633100        1.1809517105
 S         -2.9178190313       -1.3589976499        0.0732704006
 O         -2.8951191416       -2.6561684599        0.7144074106
 O         -2.2809247914       -1.2710515901       -1.2213546895
 C         -4.6011427712       -0.7890569195       -0.0256101394
 C         -5.1270221412       -0.3975278594       -1.2409905694
 C         -6.4403842511        0.0439258710       -1.2908328493
 C         -7.1993320310        0.0850950012       -0.1311963693
 C         -6.6564836810       -0.3142591689        1.0812303707
 C         -5.3449720911       -0.7577721292        1.1379504407
 H         -4.8849219912       -1.0802498893        2.0569731307
 H         -7.2498315710       -0.2806537887        1.9806750708
 H         -8.2200751909        0.4308623915       -0.1728395892
 H         -6.8639107010        0.3545541010       -2.2324217493
 H         -4.4955656312       -0.4397963396       -2.1142594494
 H         -1.5816279211       -0.8224245802        1.7803467505
 H         -3.4590419106        1.5463065902       -0.2175291295
 H         -2.4333736101        3.5883088199       -1.1555704796
 H         -0.0413100900        4.0377843393       -0.8409769598
 H          1.9993756897        2.4595003189        1.5727714502
 C          2.3733400399        3.6771593887       -0.1447374999
 C          2.2453970103        4.9963242388        0.5551991201
 C          3.5790449301        4.3187355285        0.4714395700
 H          4.3310449602        4.7345064782       -0.1821146500
 H          3.9814357701        3.8650295484        1.3654581500
 H          2.0833080105        5.8822363588       -0.0397021500
 H          1.7419149304        5.0072776890        1.5099528301
 H          2.3141783499        3.6605610587       -1.2267903499
