  62
        -98.94335648
 C         -1.9307782710       -0.7802964099        0.5315058596
 C         -2.2215249906       -0.1822684799       -0.7177125105
 C         -2.6130359403        1.2332324402       -0.6728923707
 C         -2.6139176104        1.8797947003        0.5069839393
 C         -3.0333549501        3.3077948304        0.7016345291
 C         -4.5308780001        3.4085580407        1.0250098788
 C         -5.4231676301        2.6145372108        0.0708801087
 H         -5.2183782904        1.5489709208        0.1970427788
 H         -6.4575600402        2.7823344111        0.3783711085
 C         -5.2616227098        2.9894869207       -1.4088495313
 H         -4.7782358696        3.9633361606       -1.4930881613
 H         -6.2532156397        3.0787988409       -1.8573080315
 C         -4.4869900599        1.9662777305       -2.2415516111
 H         -4.9113818801        0.9712699906       -2.0865114011
 H         -4.6179522896        2.2178204004       -3.2972719011
 C         -2.9782027499        1.8917874501       -1.9736238008
 H         -2.5296794499        1.2722921800       -2.7559280307
 H         -2.5416075497        2.8907692000       -2.0352968208
 H         -4.8177759399        4.4614493908        1.0042931987
 H         -4.6912745404        3.0317848608        2.0378246488
 H         -2.4596340602        3.7225935803        1.5323138991
 H         -2.8053896498        3.8724714802       -0.2003153009
 O         -2.2767836107        1.2843949503        1.6807542494
 C         -1.9340860410       -0.0567946598        1.7225133595
 O         -1.6608107313       -0.4838960298        2.8647525896
 H          0.6014524191       -0.6428393505        0.4089423500
 C          0.7282932190       -1.5333066805       -0.1910626999
 C         -0.2866977412       -2.4806714503       -0.2348401400
 C         -0.0975773713       -3.6209316204       -1.0053817099
 C          1.0765012188       -3.7969520607       -1.7172393097
 C          2.0836576490       -2.8517182709       -1.6706907295
 C          1.9026677791       -1.7043891908       -0.9045451797
 N          2.8900143293       -0.7060090210       -0.8718191396
 S          2.9993854393        0.3187565990        0.4600345404
 O          2.9908460189       -0.4489819509        1.6859205904
 O          2.0010077995        1.3527543592        0.3385785201
 C          4.6208954595        1.0091763787        0.1867459606
 C          4.7572468899        2.0659184086       -0.6935175994
 C          6.0218638000        2.5804838683       -0.9317573492
 C          7.1231173698        2.0327914081       -0.2904739390
 C          6.9706509594        0.9740931282        0.5921584411
 C          5.7087850592        0.4541147785        0.8340616109
 H          5.5395461389       -0.3612685514        1.5188606309
 H          7.8275758492        0.5525896380        1.0922944912
 H          8.1058942799        2.4357046478       -0.4775238888
 H          6.1433381903        3.4055059582       -1.6149233993
 H          3.8710774000        2.4632083987       -1.1607052296
 H          3.7957360393       -1.0284208413       -1.1831450694
 H          2.9977055791       -2.9904759612       -2.2273339594
 H          1.2100980887       -4.6865286608       -2.3138782796
 H         -0.8703007015       -4.3707840802       -1.0499182700
 C         -1.5284592313       -2.2413667100        0.5912731398
 H         -1.2729884215       -2.4428229500        1.6432982898
 C         -2.6951621014       -3.1228966998        0.1931249796
 C         -2.8675300018       -4.4785406297        0.8075647497
 C         -3.7900839416       -3.3608318194        1.1877797394
 H         -4.8104579716       -3.3882470092        0.8361311992
 H         -3.6761978217       -2.9100290794        2.1634365394
 H         -2.1336271620       -4.7955560298        1.5332190198
 H         -3.2592973719       -5.2765469996        0.1950292097
 H         -2.9806521612       -2.9868637598       -0.8436506904
 O         -2.1623547405       -0.7992249600       -1.8138687605
