  62
        -98.94422650
 C          2.0214188132        1.3753957502        0.2707312753
 C          2.0505524579        0.3138242278        1.2119914225
 C          2.9274961136       -0.8185862903        0.8933294489
 C          3.6386788260       -0.7939522883       -0.2486327311
 C          4.5461461863       -1.8925617274       -0.7197448905
 C          3.7967990931       -2.8910771150       -1.6125819780
 C          2.4743800866       -3.3763907464       -1.0188643961
 H          1.7803643172       -2.5347670926       -0.9621051747
 H          2.0530330986       -4.0990690535       -1.7210042309
 C          2.6012354004       -4.0214459178        0.3685947333
 H          2.0127736542       -4.9411601183        0.3860754990
 H          3.6388003675       -4.3023454870        0.5528651946
 C          2.1014871129       -3.1483271835        1.5213883419
 H          2.0256038627       -3.7749375176        2.4138700483
 H          1.0997225156       -2.7753383913        1.2939190461
 C          2.9892982133       -1.9500670160        1.8804141020
 H          4.0199818220       -2.2824779513        2.0210180749
 H          2.6288415273       -1.5405877145        2.8285759000
 H          4.4510051597       -3.7446502924       -1.7996148818
 H          3.5860810063       -2.4084775839       -2.5696938961
 H          5.3587788919       -1.4439467274       -1.2937047694
 H          4.9656751648       -2.4043538898        0.1442641373
 O          3.5725121573        0.2292406966       -1.1351298241
 C          2.7506897468        1.3269860733       -0.9180773777
 O          2.7782688384        2.1587495857       -1.8445247171
 O          1.3762680551        0.3204992653        2.2774648910
 C          1.1133234305        2.5509997154        0.5958840511
 C         -0.2072499330        2.3528466281       -0.1080594217
 C         -0.3783253750        2.6404194693       -1.4576284336
 C         -1.5948347983        2.4026669438       -2.0723586039
 C         -2.6610150294        1.8785689281       -1.3617687313
 C         -2.4949397696        1.5729681460       -0.0170381835
 C         -1.2734844910        1.8128534521        0.5984619455
 H         -1.1398424693        1.5623064003        1.6423574030
 N         -3.5700200932        1.0502708123        0.7266815146
 S         -4.3844665255       -0.3036371491        0.1805781327
 O         -5.0280044776        0.0021594420       -1.0714856253
 O         -5.2505366645       -0.6861132769        1.2714371244
 C         -3.1338858600       -1.5505071804       -0.0641662507
 C         -2.4393718470       -1.5894199171       -1.2567461732
 C         -1.4485858224       -2.5442490650       -1.4211793488
 C         -1.1731237295       -3.4391872970       -0.3988851908
 C         -1.8755205089       -3.3826457451        0.7951105296
 C         -2.8623941145       -2.4262456977        0.9682747174
 H         -3.4384876856       -2.3530540581        1.8767232347
 H         -1.6552139777       -4.0779556947        1.5892071999
 H         -0.4061232695       -4.1848112002       -0.5342198629
 H         -0.8953396236       -2.5870286707       -2.3459658597
 H         -2.6876940302       -0.8855719329       -2.0341438305
 H         -3.3604724993        0.9449551102        1.7091828025
 H         -3.6136089536        1.6924911422       -1.8310107174
 H         -1.7169886347        2.6322060632       -3.1202985512
 H          0.4540384203        3.0258811315       -2.0249355092
 H          0.9265978130        2.4758835670        1.6758017826
 C          1.7305908066        3.9042444973        0.3143478433
 C          1.1288146707        5.1171439430        0.9564083778
 C          2.4650202988        4.6134397879        1.4107760900
 H          3.3465236197        5.1819403668        1.1550934330
 H          2.5262379208        4.1245247799        2.3722915929
 H          1.0898086445        6.0344778109        0.3895402005
 H          0.2819817945        4.9683784309        1.6095491861
 H          2.1246284379        4.0073159274       -0.6874727891
