  62
        -98.93219388
 C         -2.2480294709       -1.5501741213        0.2453570450
 C         -2.6079179143       -0.6151951487       -0.7523352036
 C         -3.5975558589        0.4148844056       -0.3687691798
 C         -4.0804605811        0.4322667517        0.8855250363
 C         -5.0682441585        1.3853570603        1.5099429261
 C         -6.3020879135        1.7529668724        0.6713840442
 C         -6.2840233059        3.1953125175        0.1621159147
 H         -7.3118316608        3.5107425481       -0.0303656226
 H         -5.8888263310        3.8372976047        0.9521861397
 C         -5.4842583748        3.4228075324       -1.1194854090
 H         -6.0215352896        2.9851362989       -1.9636357910
 H         -5.4330727221        4.5006851759       -1.2904502567
 C         -4.0612315030        2.8607132161       -1.1109458326
 H         -3.4809583511        3.4090498195       -1.8565213137
 H         -3.5846005578        3.0389581087       -0.1472425579
 C         -3.9884938462        1.3677783142       -1.4659203928
 H         -3.2372810901        1.2135995123       -2.2468842269
 H         -4.9397545367        1.0403569305       -1.8950723824
 H         -6.4061228391        1.0579545951       -0.1602359685
 H         -7.1818687092        1.6319719695        1.3054142711
 H         -4.5337554634        2.2931076291        1.8017866219
 H         -5.3810309867        0.8988576485        2.4367117248
 O         -3.6783819430       -0.4691828215        1.8269134890
 C         -2.7704572967       -1.4683101006        1.5386816638
 O         -2.5145920762       -2.2207140981        2.4996781698
 O         -2.1345748188       -0.6131628653       -1.9195040529
 C         -1.2633762538       -2.6870800091        0.0155102351
 C          0.1480158429       -2.2116464675        0.2461385828
 C          0.9820907037       -2.8473052400        1.1574364557
 C          2.2662939952       -2.3804618656        1.3790611189
 C          2.7438316075       -1.2758942474        0.6967121945
 C          1.9150959211       -0.6292037862       -0.2111425667
 C          0.6292214304       -1.0996068407       -0.4319006055
 H         -0.0132615623       -0.5957318744       -1.1393607648
 N          2.3908445037        0.4915502830       -0.9160926643
 S          3.0730632902        1.7383472559       -0.0213736622
 O          2.5176074479        1.7998892401        1.3116385148
 O          2.9198711553        2.9230342005       -0.8374358634
 C          4.7991563827        1.3063546127        0.0518607393
 C          5.4560371043        1.0493473306       -1.1357832503
 C          6.8012811211        0.7193088881       -1.0981849913
 C          7.4640754522        0.6560155074        0.1186810121
 C          6.7913764942        0.9206711447        1.3017326328
 C          5.4449828133        1.2499652328        1.2713357084
 H          4.8788209676        1.4563056521        2.1657517079
 H          7.3080457183        0.8711563772        2.2467418034
 H          8.5110440975        0.3983335394        0.1452321493
 H          7.3275858823        0.5124132046       -2.0160539149
 H          4.9048617372        1.1116288658       -2.0591683442
 H          1.7199683878        0.8562683813       -1.5780182270
 H          3.7414936377       -0.9060394563        0.8683075932
 H          2.9027135216       -2.8815721410        2.0922640056
 H          0.6107002464       -3.6999724051        1.7068431155
 H         -1.4951821658       -3.4244851724        0.7999252705
 C         -1.4567671597       -3.3790171297       -1.3279217010
 C         -0.4460264042       -3.3566099223       -2.4315085105
 C         -0.6653823491       -4.6129729466       -1.6474435776
 H         -1.1674657226       -5.4429383260       -2.1208552394
 H          0.1025612134       -4.9012574430       -0.9453671977
 H         -0.8166954486       -3.3014552274       -3.4437505966
 H          0.4727854353       -2.8138770206       -2.2757431663
 H         -2.4976533386       -3.3778547155       -1.6347100454
