  62
        -98.94608705
 C          1.4141021978        0.8521659599       -0.0957329299
 C          2.4965352021        0.8533338705        0.8221943027
 C          3.4525125673       -0.2548335506        0.7161656762
 C          3.2445333873       -1.2106551492       -0.2073792950
 C          4.1559915400       -2.3766855768       -0.4570480808
 C          5.2071217205       -2.0440500870       -1.5252123103
 C          5.9324151377       -0.7198419142       -1.2854754238
 H          6.6697264530       -0.6040922481       -2.0827589741
 H          5.2176156251        0.0999608353       -1.3861710732
 C          6.6316613089       -0.6168542499        0.0772006564
 H          7.6301191023       -0.2006480767       -0.0721361842
 H          6.7562927628       -1.6119524705        0.5057408614
 C          5.9202023989        0.2841249042        1.0883582063
 H          5.7088570656        1.2534542436        0.6300727414
 H          6.6009948804        0.4593247581        1.9256311706
 C          4.6129705035       -0.2678091564        1.6711766450
 H          4.7791113894       -1.2746782511        2.0604476779
 H          4.3209769619        0.3782696775        2.5043782544
 H          5.9330599807       -2.8584613426       -1.5600228366
 H          4.7084614121       -1.9914074443       -2.4958061769
 H          4.6442330672       -2.6538393266        0.4754984687
 H          3.5501405837       -3.2169276105       -0.8014936117
 O          2.1908603911       -1.1927691316       -1.0588213857
 C          1.2481377608       -0.1723083430       -1.0292317471
 O          0.3493356389       -0.3090816724       -1.8813323112
 H         -0.8080289932       -0.3967086875        0.4682306110
 C         -1.2351138511        0.4026781846        1.0520819437
 C         -0.7087309503        1.6822041357        0.9704837162
 C         -1.2660887994        2.6839175990        1.7585878197
 C         -2.3227754452        2.4073258561        2.6059089057
 C         -2.8512523168        1.1308800118        2.6774517909
 C         -2.2995758495        0.1207918818        1.8978893345
 N         -2.7979701889       -1.1876677310        1.9687744862
 S         -2.9018331872       -2.1350703380        0.5926812640
 O         -3.8363315399       -3.1786093046        0.9619342037
 O         -1.5924351927       -2.5805214824        0.1905520540
 C         -3.6543545636       -1.0706733106       -0.6239196186
 C         -2.9087821755       -0.5041191257       -1.6363531227
 C         -3.5385454227        0.3622260578       -2.5185293084
 C         -4.8869332671        0.6458661524       -2.3747059355
 C         -5.6226373787        0.0621489772       -1.3538783762
 C         -5.0017315196       -0.8020065485       -0.4684818445
 H         -5.5391266405       -1.2879913039        0.3297301727
 H         -6.6730218669        0.2794549028       -1.2460904468
 H         -5.3668423640        1.3228893210       -3.0637479396
 H         -2.9624088174        0.8106358796       -3.3126453726
 H         -1.8581931847       -0.7334429634       -1.7282564401
 H         -3.6126238384       -1.2984347658        2.5545497158
 H         -3.6741672381        0.9110816405        3.3399658724
 H         -2.7412765018        3.1921475825        3.2169898890
 H         -0.8547586950        3.6807545583        1.7159412132
 C          0.4321588754        2.0012533182        0.0298203697
 H          1.0062926615        2.8237485916        0.4801164606
 C         -0.1323447006        2.4800812022       -1.2946008651
 C         -0.4976227582        3.9218388465       -1.4733363728
 C          0.6996898248        3.3590708820       -2.1775360570
 H          0.6554322805        3.2038932853       -3.2448247187
 H          1.6801810787        3.6388447706       -1.8198775898
 H         -0.3223810281        4.5948250188       -0.6482669082
 H         -1.3731177014        4.1600136162       -2.0569989870
 H         -0.7549995598        1.7404855965       -1.7800675537
 O          2.6565033572        1.7535483537        1.6910651132
