  62
        -98.93910484
 C         -1.4469612992       -0.9829143904       -0.6001977896
 C         -2.5743088692       -1.0231608103        0.2570665104
 C         -3.2638062193        0.2481845797        0.5431657102
 C         -2.7791269693        1.3789854696       -0.0022053800
 C         -3.3158974694        2.7805830696        0.1188711497
 C         -4.5677835394        3.0148869493       -0.7424041803
 C         -5.5974917594        1.8889067493       -0.6987224201
 H         -6.3738303494        2.1203506191       -1.4326615802
 H         -5.1222519193        0.9574409492       -1.0113759600
 C         -6.2786920394        1.6824935895        0.6518717099
 H         -7.0434873293        0.9136729194        0.5156684000
 H         -6.7841716694        2.6060108995        0.9429293797
 C         -5.3677514493        1.2459055398        1.8011288500
 H         -6.0128334193        0.9110337699        2.6188495700
 H         -4.7922401594        2.0834178099        2.1865219998
 C         -4.4406965493        0.0793111498        1.4737511702
 H         -4.0197803792       -0.3049852900        2.4111507003
 H         -5.0333089192       -0.7471867404        1.0649268004
 H         -5.0328688495        3.9503786494       -0.4270477505
 H         -4.2455155994        3.1306647092       -1.7799846804
 H         -3.5103061895        3.0141405998        1.1616400297
 H         -2.5234054295        3.4488735796       -0.2257656204
 O         -1.6929667093        1.3746804895       -0.8212504300
 C         -0.9914656693        0.2239066895       -1.1279982198
 O         -0.0157175093        0.4274560894       -1.8783660498
 O         -3.0052723391       -2.0954161603        0.7646508006
 C         -0.7361481591       -2.3035056604       -0.8440008593
 C          0.3575594109       -2.4961402002        0.1810923507
 C          0.3880661010       -3.6275358800        0.9867916109
 C          1.3688609710       -3.7755418498        1.9515449710
 C          2.3140953709       -2.7861503297        2.1478421008
 C          2.2920802509       -1.6482789498        1.3467628506
 C          1.3377664509       -1.5275953501        0.3486325505
 H          1.3302601308       -0.6491134702       -0.2737482496
 N          3.2347996208       -0.6282429697        1.5371399404
 S          2.8271755907        1.0016479602        1.4520837901
 O          3.5227223506        1.6068900905        2.5720162500
 O          1.3981160607        1.1934953001        1.4139450200
 C          3.6207378706        1.5471162200       -0.0464580700
 C          4.9698832006        1.8422123201        0.0250983599
 C          5.6319768206        2.2542596699       -1.1188186501
 C          4.9375473906        2.3635634197       -2.3145975102
 C          3.5856028506        2.0652221996       -2.3697246901
 C          2.9152389206        1.6525530697       -1.2271584600
 H          1.8623974807        1.4158676197       -1.2555521500
 H          3.0383918306        2.1475123594       -3.2954026201
 H          5.4505281006        2.6847453295       -3.2074685402
 H          6.6832480406        2.4892120300       -1.0757833102
 H          5.4658850806        1.7581925303        0.9778279999
 H          3.8664960208       -0.7907149795        2.3081545904
 H          3.0621071309       -2.8859018495        2.9200110908
 H          1.3846781210       -4.6592745396        2.5713085411
 H         -0.3747446390       -4.3828197801        0.8682021811
 H         -1.4953000690       -3.0780824804       -0.6665493292
 C         -0.1936175491       -2.4769558507       -2.2480597393
 C          0.0259946410       -3.8625447607       -2.7745680590
 C         -1.0880210290       -3.0210976309       -3.3195681492
 H         -0.9965053991       -2.6202784811       -4.3176614393
 H         -2.1012462890       -3.2745296709       -3.0430520991
 H          0.8866067910       -4.0439480308       -3.3995455890
 H         -0.2332732989       -4.6899970606       -2.1317129489
 H          0.5145128109       -1.7105983707       -2.5334024794
