  62
        -98.93251767
 C         -2.4427943106       -0.8581754105        0.2403385804
 C         -2.8812540107        0.4541653895        0.5485136606
 C         -4.0277489308        0.9722368794       -0.2140656393
 C         -4.5806747507        0.2036665695       -1.1677141294
 C         -5.7251940807        0.5311303295       -2.0939072294
 C         -6.9399265308        1.2505153293       -1.4918792992
 C         -7.2540302308        0.8855499690       -0.0336706293
 H         -8.3086303607        0.6150787889        0.0451248207
 H         -6.6707227307        0.0139602291        0.2681954706
 C         -6.9912103109        2.0371197089        0.9397979109
 H         -7.5599137809        1.8596627787        1.8558361908
 H         -7.3660822910        2.9624369489        0.4969250210
 C         -5.5309191809        2.2335810090        1.3457551909
 H         -5.2110622508        1.4101892490        1.9902137208
 H         -5.4670482310        3.1479343090        1.9407257410
 C         -4.5273257209        2.3310392493        0.1849725709
 H         -4.9524435410        2.8676339994       -0.6598845591
 H         -3.6522641710        2.8814676594        0.5416264009
 H         -6.7985259709        2.3279345093       -1.5649099591
 H         -7.7962999908        1.0031122392       -2.1214623493
 H         -5.3311763208        1.1263841696       -2.9228334393
 H         -6.0376425206       -0.4302145405       -2.5087250495
 O         -4.1132191506       -1.0428308104       -1.4511254096
 C         -3.0448917905       -1.6109617504       -0.7676638597
 O         -2.7583436504       -2.7564497403       -1.1577981598
 O         -2.3333654708        1.1661409194        1.4339458807
 C         -1.2816120305       -1.3950512404        1.0576638403
 C          0.0325625895       -1.0931090402        0.3840729704
 C          0.2770196495       -1.4754338800       -0.9316544097
 C          1.4909586495       -1.1878804898       -1.5278698097
 C          2.4807977594       -0.5137828397       -0.8329407996
 C          2.2386040494       -0.1063700399        0.4715523605
 C          1.0201129794       -0.4038741502        1.0712855404
 H          0.8303611894       -0.0759181303        2.0843759305
 N          3.2334982293        0.5689986801        1.1915725805
 S          4.1989626691        1.7118871803        0.4366942907
 O          4.6911029191        2.5460634002        1.5107953008
 O          3.4984659491        2.3856657403       -0.6315207092
 C          5.5497119493        0.7534535205       -0.2187951595
 C          6.2131909694       -0.1069810195        0.6339686904
 C          7.2727397394       -0.8519741793        0.1418664503
 C          7.6517638394       -0.7223777991       -1.1859797497
 C          6.9786635793        0.1489836909       -2.0283166096
 C          5.9168495192        0.8962551207       -1.5424454494
 H          5.3613193691        1.5816842208       -2.1629494394
 H          7.2750066493        0.2490190711       -3.0601685395
 H          8.4764741095       -1.3039135890       -1.5667224398
 H          7.7986306595       -1.5307478193        0.7938227502
 H          5.8906404694       -0.1775660397        1.6592184704
 H          2.9475045393        0.8740380499        2.1103097406
 H          3.4247677894       -0.2853009496       -1.2994131696
 H          1.6710262495       -1.4939473096       -2.5473697397
 H         -0.4942206304       -1.9981694900       -1.4771896097
 H         -1.3107336005       -0.8112745805        1.9918443204
 C         -1.4371871803       -2.8606879705        1.4394432802
 C         -0.5708596602       -3.9592735803        0.9091029600
 C         -0.4180635702       -3.5099063305        2.3291346801
 H         -0.7588351701       -4.1585733406        3.1217268200
 H          0.4606432497       -2.9325492104        2.5753696501
 H         -1.0414466401       -4.9097310403        0.7095435499
 H          0.2077179798       -3.7053605501        0.2078712100
 H         -2.4754253303       -3.1192696106        1.6217244901
