  62
        -98.94253480
 C         -1.5198026570       -1.4016225743        0.2765683963
 C         -1.9970436975       -0.8999066695       -0.9592232943
 C         -2.8765475253        0.2764864202       -0.8718493776
 C         -3.1978350526        0.7767908676        0.3349793403
 C         -4.0247864133        2.0091595300        0.5588353346
 C         -3.1389237473        3.2594893451        0.6520896594
 C         -2.1060437632        3.3695630335       -0.4698200959
 H         -1.5509991513        4.2972559295       -0.3139757363
 H         -1.3902104591        2.5485702976       -0.3788595651
 C         -2.7062463356        3.3686616285       -1.8831954419
 H         -3.7685634897        3.6105442484       -1.8339573364
 H         -2.2225624313        4.1529082019       -2.4696471494
 C         -2.5234661873        2.0604323249       -2.6553214482
 H         -1.4696848044        1.7682581802       -2.6400430930
 H         -2.7937517035        2.2420323059       -3.6990450566
 C         -3.3595265890        0.8714685210       -2.1644252420
 H         -4.4085851268        1.1642543491       -2.0905412271
 H         -3.2759485587        0.0762977020       -2.9112762742
 H         -3.7818000886        4.1413693066        0.6435066913
 H         -2.6091130318        3.2338885010        1.6064437107
 H         -4.7385495820        2.1154295957       -0.2556219955
 H         -4.5721181577        1.8916588440        1.4954548225
 O         -2.7580456198        0.2388819986        1.5001503058
 C         -1.9029136971       -0.8516127254        1.5007937628
 O         -1.5619729466       -1.2367106210        2.6358023438
 H          0.4020115468       -0.1767425810       -0.6037801312
 C          1.1261696192       -0.9765250022       -0.6900324022
 C          0.7874300432       -2.2582063514       -0.2848871444
 C          1.7501201663       -3.2572237015       -0.4052001730
 C          3.0086582261       -2.9770810458       -0.9055727890
 C          3.3383676307       -1.6945915626       -1.3100551010
 C          2.3816882230       -0.6973980938       -1.2122196262
 N          2.7217830690        0.6238094084       -1.6050298088
 S          3.5186512595        1.4809357285       -0.4044135767
 O          3.6823767814        2.8251067751       -0.9077259139
 O          4.7217810990        0.7667113338       -0.0655890652
 C          2.3826430251        1.4740841380        0.9700084746
 C          2.3635449397        0.3829586918        1.8165085865
 C          1.4030701988        0.3273581978        2.8135418049
 C          0.4834294315        1.3560612199        2.9461882509
 C          0.5191425520        2.4463966955        2.0908973046
 C          1.4706173472        2.5037797725        1.0852067136
 H          1.5280038412        3.3312839153        0.3956567098
 H         -0.1951402116        3.2471560141        2.1990442717
 H         -0.2730843525        1.2924410046        3.7124744859
 H          1.3545500133       -0.5241270673        3.4727109323
 H          3.0966125326       -0.3965755193        1.6837846150
 H          1.9187353475        1.1621090273       -1.9006181015
 H          4.3171976844       -1.4495794373       -1.6879785562
 H          3.7424533001       -3.7646318247       -0.9816827647
 H          1.5076179883       -4.2616188777       -0.0965530808
 C         -0.5610242098       -2.5715201544        0.3247159717
 H         -0.3981371401       -2.7806119254        1.3926212599
 C         -1.1776788477       -3.8037960663       -0.3167333019
 C         -0.9992401435       -5.1588151476        0.2969994239
 C         -2.3303168438       -4.4748960954        0.3664515434
 H         -3.1424302958       -4.8491962797       -0.2383249197
 H         -2.6455310162       -4.0683071642        1.3168873358
 H         -0.4298298226       -5.2295192976        1.2118368551
 H         -0.8939142051       -6.0104358053       -0.3580175069
 H         -1.2148643927       -3.7352226914       -1.3974098073
 O         -1.6951377798       -1.3883895682       -2.0796610464
