  62
        -98.93452188
 C         -2.0052140776       -0.5958352349        0.1436456519
 C         -2.6870696894        0.5432798371        0.6363604967
 C         -4.0576712545        0.7826506032        0.1473798231
 C         -4.5808614313       -0.0782633178       -0.7450839159
 C         -5.9573162311       -0.0695240218       -1.3550783779
 C         -7.0403261508       -0.5624610999       -0.3819385969
 C         -6.9320091386       -0.0070479054        1.0357006747
 H         -5.9537442566       -0.2623524805        1.4470509133
 H         -7.6833792955       -0.5122545275        1.6483727608
 C         -7.1596182613        1.4971909875        1.1647147608
 H         -7.1449242786        1.7371090023        2.2310401153
 H         -8.1531900850        1.7434813310        0.7834226967
 C         -6.1347301103        2.3916990652        0.4639579625
 H         -6.2772529339        3.4081240767        0.8427620990
 H         -6.3170441411        2.4342569300       -0.6065434111
 C         -4.6785825433        2.0267659321        0.7353433286
 H         -4.5205029703        1.9613933089        1.8179995960
 H         -4.0433678727        2.8569778942        0.4027672039
 H         -6.9671417613       -1.6509189410       -0.3188649441
 H         -8.0176885937       -0.3141476906       -0.7991349009
 H         -6.1938987092        0.9226273778       -1.7280076887
 H         -5.9249746273       -0.7473088209       -2.2110170674
 O         -3.8855839167       -1.1565074427       -1.2018113965
 C         -2.5935236989       -1.4464501322       -0.7924029047
 O         -2.1132605355       -2.4608620904       -1.3289067867
 H          1.3095268664        0.9357892914        1.4056355283
 C          1.3393612510        0.7317610647        0.3438721102
 C          0.4136314883       -0.1405619243       -0.2090195798
 C          0.4544837106       -0.3771586821       -1.5796765718
 C          1.3986986623        0.2499377638       -2.3721736403
 C          2.3207825957        1.1203793178       -1.8168072232
 C          2.2885129646        1.3621231788       -0.4504457500
 N          3.2476512870        2.2246288820        0.1197405433
 S          4.8459148639        1.7472148299       -0.0706456816
 O          5.5829062246        2.4426232442        0.9594044924
 O          5.2570425332        1.9954354771       -1.4284281792
 C          4.8042360078       -0.0056789190        0.2533008754
 C          4.7749717212       -0.4272350584        1.5680752646
 C          4.6382220377       -1.7795925845        1.8355944920
 C          4.5190972355       -2.6813548363        0.7889130902
 C          4.5522882494       -2.2422242054       -0.5251771500
 C          4.6958819088       -0.8915234559       -0.7996854355
 H          4.7293006139       -0.5115063643       -1.8073198423
 H          4.4596848010       -2.9462719486       -1.3363268277
 H          4.3958293699       -3.7316346536        0.9990489552
 H          4.6153053222       -2.1255598082        2.8565804233
 H          4.8714189086        0.3051527892        2.3538225617
 H          3.0658449493        2.4361798554        1.0908381941
 H          3.0681266037        1.6118919248       -2.4186799881
 H          1.4176891380        0.0588018445       -3.4345014541
 H         -0.2592168141       -1.0617801058       -2.0127079413
 C         -0.6004320419       -0.8246973948        0.6707168778
 H         -0.5862563837       -0.3133709645        1.6463310422
 C         -0.2719934784       -2.2907421008        0.9199730734
 C          0.7823069811       -3.0446812689        0.1710938003
 C          1.0158760563       -2.6558026512        1.5976991251
 H          1.0024406217       -3.4226217029        2.3568575643
 H          1.7196318540       -1.8581173242        1.7840998153
 H          1.3392150035       -2.5262595713       -0.5932187190
 H          0.5805729746       -4.0786104052       -0.0625053758
 H         -1.1507374595       -2.8583117282        1.2073608800
 O         -2.1721172722        1.3347152426        1.4734844604
