  62
        -98.93645918
 C         -2.1343689603       -1.0564254399        0.3261352889
 C         -2.0999578402       -0.1196009994       -0.7372654706
 C         -2.2438600002        1.2912208404       -0.3465402199
 C         -2.3690076103        1.6279811298        0.9481425603
 C         -2.4593549802        3.0252730695        1.4996439410
 C         -3.8669042702        3.6351943196        1.4533223912
 C         -4.3588731401        4.0345085003        0.0616707214
 H         -5.2548780201        4.6425572903        0.2006088216
 H         -3.6090281100        4.6626621105       -0.4200974782
 C         -4.7029850701        2.8494667808       -0.8511555892
 H         -4.8155743102        1.9460822505       -0.2475134397
 H         -5.6625515900        3.0318498311       -1.3399340992
 C         -3.6772320100        2.5804013013       -1.9522767093
 H         -3.6465059599        3.4274774816       -2.6411912289
 H         -3.9979086400        1.6998603916       -2.5146882998
 C         -2.2558022101        2.3190489110       -1.4376083693
 H         -1.6517874600        1.9305660514       -2.2622222495
 H         -1.8023457401        3.2466089808       -1.0870388688
 H         -3.8536834002        4.5291596392        2.0810172917
 H         -4.5681035403        2.9257639294        1.8983988308
 H         -1.7599352802        3.6691203897        0.9648772214
 H         -2.1424868903        2.9641975489        2.5431041910
 O         -2.4068217304        0.6993375693        1.9407846298
 C         -2.2719617204       -0.6473702106        1.6549226791
 O         -2.3036018105       -1.3870939011        2.6609460588
 O         -1.9557010402       -0.4154502588       -1.9517138307
 C         -1.8758011204       -2.5454263399        0.1540174482
 C         -0.4216366204       -2.8274571301        0.4483728582
 C         -0.0258941505       -3.9646464004        1.1408436176
 C          1.3133859394       -4.1926124206        1.4100795876
 C          2.2762543695       -3.2758352805        1.0315803181
 C          1.8866206996       -2.1211693301        0.3586210987
 C          0.5529496596       -1.9265398099        0.0407660187
 H          0.2716810697       -1.0455557596       -0.5160304609
 N          2.8320364197       -1.1264073600        0.0534467692
 S          2.3832384298        0.4002386203       -0.4652374200
 O          1.3906499697        0.9192532498        0.4416543502
 O          2.0573636899        0.4025070410       -1.8757815700
 C          3.9277891098        1.2559851001       -0.2145829095
 C          4.2843857597        1.5908199894        1.0780467607
 C          5.4889532697        2.2399568292        1.2954668211
 C          6.3135977198        2.5427171797        0.2217828414
 C          5.9421189999        2.2027955204       -1.0699771388
 C          4.7383749299        1.5522322806       -1.2933709593
 H          4.4033182399        1.2763424211       -2.2802693594
 H          6.5832329300        2.4425444508       -1.9028811287
 H          7.2500021798        3.0495026496        0.3934783717
 H          5.7789719897        2.5082034387        2.2985796813
 H          3.6056249597        1.3435923390        1.8780729706
 H          3.7082765597       -1.4527047299       -0.3239446009
 H          3.3166741195       -3.4377184807        1.2644971381
 H          1.6079463094       -5.0862508009        1.9388894571
 H         -0.7748233506       -4.6631818506        1.4841095172
 H         -2.4691378105       -3.0473862902        0.9363815579
 C         -2.3249763803       -3.1030674292       -1.1876824121
 C         -1.3705807103       -3.4217242486       -2.2948384022
 C         -2.0452704904       -4.5318649390       -1.5501281428
 H         -2.8186678204       -5.0936541587       -2.0514646732
 H         -1.4422834104       -5.1143312894       -0.8709214131
 H         -1.6808964902       -3.1974289981       -3.3037019621
 H         -0.3197380703       -3.2472193188       -2.1195223921
 H         -3.2892672203       -2.7057999390       -1.4859959920
