  62
        -98.93074576
 C          2.2476286434       -0.4823472726        0.2668262515
 C          3.5276754515       -0.8992728004        0.7113895598
 C          4.6749498746       -0.5389396941       -0.1376367669
 C          4.4571651435        0.1110884009       -1.2931144088
 C          5.4626325537        0.5469445219       -2.3293882170
 C          6.7694045406        1.1755591979       -1.8261757643
 C          6.6420773780        1.9905580306       -0.5307543157
 H          7.0968138947        2.9713037869       -0.6823295201
 H          5.5895448729        2.1542969591       -0.2925235310
 C          7.3391182869        1.3298770135        0.6611689420
 H          7.5337504080        2.0913918470        1.4202208449
 H          8.3056576751        0.9434320918        0.3306643022
 C          6.5571627368        0.2054540108        1.3394309577
 H          7.2083875599       -0.2540230531        2.0868566298
 H          5.7001324729        0.6216563746        1.8764429611
 C          6.0302981849       -0.8939497932        0.4027708301
 H          6.7386959800       -1.1057019002       -0.3942830492
 H          5.8895799884       -1.8015310318        0.9960678734
 H          7.1373797880        1.8198172961       -2.6264357909
 H          7.5167050508        0.3965480225       -1.6822235671
 H          5.6992472396       -0.3167326683       -2.9575092607
 H          4.9285837956        1.2640322260       -2.9574294233
 O          3.2041146336        0.4448447062       -1.7107797237
 C          2.0722320108        0.1688913975       -0.9540352303
 O          1.0126788012        0.5472180926       -1.4862397892
 H         -1.4223713971        0.2640905774        0.5692792656
 C         -1.2695412844       -0.7133972519        0.1434748793
 C         -0.0719069725       -1.3845312600        0.3267041631
 C          0.0940817718       -2.6303178807       -0.2732983584
 C         -0.9146996245       -3.1876294667       -1.0344107934
 C         -2.1162698612       -2.5217490667       -1.2010126445
 C         -2.2876299354       -1.2732757067       -0.6154304778
 N         -3.4815637761       -0.5574963439       -0.7946805259
 S         -4.0389328416        0.4212499779        0.4595474141
 O         -3.3925994511        1.7071989849        0.3882614323
 O         -3.9284255770       -0.2788161280        1.7205359420
 C         -5.7528334630        0.5879739421       -0.0062960324
 C         -6.7050751485       -0.2115827077        0.5969895121
 C         -8.0285651139       -0.0917492388        0.2026029504
 C         -8.3749688676        0.8180033753       -0.7849729161
 C         -7.4081078886        1.6145192808       -1.3808170301
 C         -6.0834456347        1.5009886221       -0.9901594834
 H         -5.2991369387        2.1040714529       -1.4175007581
 H         -7.6811978521        2.3227548817       -2.1463852142
 H         -9.4052425988        0.9092359872       -1.0907063871
 H         -8.7828691829       -0.7067364466        0.6663425017
 H         -6.3900507429       -0.8990001614        1.3654650274
 H         -4.2218619079       -1.1135096978       -1.1996999879
 H         -2.9078429159       -2.9577487670       -1.7914823793
 H         -0.7697458211       -4.1533659003       -1.4950585994
 H          1.0318417085       -3.1526546118       -0.1386455695
 C          1.0574372698       -0.8167224402        1.1470678536
 H          1.4256247889       -1.6154338157        1.8135480054
 C          0.6123455521        0.3261682294        2.0473384148
 C          1.6007580059        1.3072467725        2.6004134851
 C          0.5906336227        1.7516193647        1.5875374600
 H         -0.2295884469        2.3777599697        1.9089453597
 H          0.9211836169        1.9587032988        0.5814133111
 H          2.6291720016        1.2097814937        2.2842127736
 H          1.4856600924        1.6330402902        3.6231471120
 H         -0.1913770100        0.0237773361        2.7136485459
 O          3.7052388474       -1.5572805292        1.7709322423
