  62
        -98.94036526
 C         -2.5594609035       -0.4399049692        0.0005755131
 C         -2.1070599756       -1.3917675971       -0.9428060827
 C         -1.3147631921       -2.5069385157       -0.4095444441
 C         -1.1036282529       -2.5865265040        0.9166236230
 C         -0.2298678110       -3.5994276746        1.6010984630
 C          1.2450210400       -3.1609121592        1.4911259511
 C          2.1200339517       -4.0653881344        0.6205777674
 H          3.0416055826       -3.5179110171        0.4107645488
 H          2.3859378079       -4.9568806414        1.1935703185
 C          1.5099254393       -4.5341633166       -0.7035896834
 H          2.3281320511       -4.9445670256       -1.2994347340
 H          0.8172917146       -5.3564038310       -0.5162747917
 C          0.7871054801       -3.4668719862       -1.5356823888
 H          1.1545870375       -2.4662373054       -1.2974585809
 H          1.0169806594       -3.6419398605       -2.5891576139
 C         -0.7478176988       -3.4852182052       -1.3989594654
 H         -1.0869273776       -4.4970674442       -1.1600266317
 H         -1.1892013931       -3.2049673422       -2.3599129820
 H          1.2678551154       -2.1392667932        1.1037968978
 H          1.6850662218       -3.1225805673        2.4893032228
 H         -0.5351477269       -3.6373626839        2.6472046937
 H         -0.3770690845       -4.5806253368        1.1555344481
 O         -1.6101802158       -1.6877758554        1.7994944615
 C         -2.2873658842       -0.5603565522        1.3627825413
 O         -2.6101204203        0.2284740581        2.2726021605
 O         -2.3462904369       -1.3028956201       -2.1795119676
 C         -3.2118787323        0.8372496064       -0.5022241055
 C         -2.2700418946        1.9776304059       -0.1958085953
 C         -2.6474885265        3.1615672892        0.4226386813
 C         -1.6954096781        4.1166630893        0.7392941100
 C         -0.3558772961        3.9050014881        0.4696455326
 C          0.0279227449        2.7310308756       -0.1697934158
 C         -0.9313643160        1.7989672427       -0.5224091181
 H         -0.6207794009        0.8930893883       -1.0232696922
 N          1.3759627550        2.4606558301       -0.4707326511
 S          1.8672059816        0.8470049403       -0.3235795817
 O          1.6070424332        0.1674695220       -1.5680718313
 O          1.2988440607        0.2558485940        0.8660845446
 C          3.6277874127        1.0567182694       -0.1317732193
 C          4.3764666324        1.3846028288       -1.2468070593
 C          5.7416083119        1.5746691375       -1.1042915613
 C          6.3323671372        1.4328567950        0.1428683554
 C          5.5687839610        1.1001071552        1.2514772826
 C          4.2018778380        0.9114619501        1.1164699591
 H          3.5673018650        0.6461512880        1.9471159158
 H          6.0306596180        0.9859815984        2.2188638433
 H          7.3953488439        1.5794782924        0.2508672599
 H          6.3388806200        1.8305068586       -1.9644376906
 H          3.8744466251        1.4716460307       -2.1962219070
 H          2.0138581271        3.0835747095        0.0065822580
 H          0.3864063040        4.6363256485        0.7514750315
 H         -2.0000524772        5.0299138594        1.2277524412
 H         -3.6820400429        3.3288826456        0.6739649564
 H         -3.2757721417        0.7236894785       -1.5949708406
 C         -4.6053557129        1.0214352703        0.0555285354
 C         -5.6184523961        1.8212558643       -0.7066223899
 C         -5.7522621450        0.3316468382       -0.6184033192
 H         -6.5366953334       -0.0826288728       -0.0032982636
 H         -5.5288544937       -0.2569789643       -1.4962983144
 H         -6.3166545889        2.4304884980       -0.1530026668
 H         -5.3109881136        2.2463913649       -1.6500726337
 H         -4.6167920704        1.0715729718        1.1381531022
