  62
        -98.93525762
 C         -2.1298840142       -0.8877842732        0.6623146527
 C         -1.8638470466       -0.1398410159       -0.5093543116
 C         -1.9060364594        1.3315300195       -0.3843397168
 C         -2.2024947105        1.8766727907        0.8087790706
 C         -2.3499679966        3.3351912281        1.1503642846
 C         -3.6675164957        3.9373566131        0.6307062285
 C         -4.0688017752        3.5022661605       -0.7768631753
 H         -4.1206469501        2.4125307546       -0.8135804868
 H         -5.0761149240        3.8819856789       -0.9670381469
 C         -3.1617702716        4.0033973682       -1.8979787179
 H         -3.5902179777        3.6589705856       -2.8424903364
 H         -3.1729065359        5.0956828250       -1.9053697160
 C         -1.7058862260        3.5381781461       -1.8370412713
 H         -1.1565244964        4.0770037030       -1.0695722586
 H         -1.2388864369        3.7978235020       -2.7918260441
 C         -1.5167482060        2.0342948988       -1.6613673690
 H         -2.0423511271        1.5091798783       -2.4670747943
 H         -0.4537277978        1.7948528524       -1.7983603261
 H         -4.4659209182        3.6315365588        1.3110775796
 H         -3.5886999969        5.0248733601        0.6698285786
 H         -2.3398369990        3.4050914896        2.2404725851
 H         -1.4912427101        3.8865275947        0.7777130770
 O         -2.4696380362        1.1164026683        1.9107606691
 C         -2.3915925663       -0.2617412361        1.8807998310
 O         -2.5789465586       -0.8122680064        2.9864311865
 H          0.3981016316       -1.3133133477        1.0581953200
 C          0.4410454684       -2.0853603739        0.3021412457
 C         -0.7139279340       -2.7836885532       -0.0301152154
 C         -0.6328957351       -3.7757380022       -0.9977032632
 C          0.5698291499       -4.0344362435       -1.6330326814
 C          1.7031091630       -3.3015107461       -1.3356555403
 C          1.6341513241       -2.3128392985       -0.3598366698
 N          2.7675527988       -1.5481861660       -0.0208526857
 S          2.5356775631        0.0896011031        0.3263719726
 O          2.0833044823        0.2183205666        1.6905774859
 O          1.7163711638        0.7171825088       -0.6850153355
 C          4.2183836426        0.6692522874        0.2021554372
 C          5.0818166784        0.4176864064        1.2516838874
 C          6.3999713486        0.8327077749        1.1489575846
 C          6.8307018531        1.4884822170        0.0049530160
 C          5.9523052958        1.7358270522       -1.0390881305
 C          4.6327561924        1.3217746000       -0.9433027451
 H          3.9116848913        1.4972101170       -1.7256283546
 H          6.2886345991        2.2482995513       -1.9259124931
 H          7.8569896346        1.8108730804       -0.0722649701
 H          7.0847905256        0.6446716882        1.9599742397
 H          4.6979758123       -0.0866250002        2.1231370915
 H          3.5204563058       -1.6663879567       -0.6862964870
 H          2.6313804176       -3.4844977244       -1.8555424094
 H          0.6183597069       -4.8039990852       -2.3886031489
 H         -1.5149217897       -4.3281091036       -1.2770991638
 C         -1.9857082522       -2.4006531495        0.6891974316
 H         -1.8543506688       -2.6497684212        1.7564185213
 C         -3.2115965076       -3.1658814287        0.2127406070
 C         -4.5693346626       -2.5306189924        0.2147817918
 C         -3.8925989325       -2.8472665814       -1.0831026666
 H         -4.2787817272       -3.6649276538       -1.6740738336
 H         -3.4876744279       -2.0354181311       -1.6659142379
 H         -5.4140753339       -3.1308649204        0.5182465260
 H         -4.6365531355       -1.4960755346        0.5197875171
 H         -3.1754878734       -4.2117510545        0.5017347285
 O         -1.6062491699       -0.6631824828       -1.6249546552
