  62
        -98.94335358
 C         -1.8234294208       -1.1686380492       -0.2314753602
 C         -2.6129168901       -0.2979144988        0.5511252801
 C         -2.8050135892        1.0738456115        0.0423291103
 C         -2.2334802992        1.4167636412       -1.1267721997
 C         -2.2616387284        2.7464625414       -1.8336488795
 C         -1.3141104475        3.7755321706       -1.2004977795
 C         -1.3850825472        3.8574114404        0.3216354305
 H         -1.1126110878        2.8891546201        0.7469650703
 H         -0.6202092366        4.5669647498        0.6506492805
 C         -2.7256671467        4.3219402213        0.8875708809
 H         -2.5924837464        4.4420038410        1.9658931009
 H         -2.9673071161        5.3030803615        0.4718783511
 C         -3.9190793574        3.3897174021        0.6609749209
 H         -4.3173136875        3.4930187126       -0.3449838590
 H         -4.7126875571        3.7086930026        1.3430775111
 C         -3.6443995784        1.9212328919        0.9666832506
 H         -3.1759760783        1.8425096614        1.9550969605
 H         -4.6028267488        1.3957248826        1.0591931707
 H         -0.2889241178        3.5050671299       -1.4667545197
 H         -1.5310134369        4.7547983708       -1.6319837993
 H         -1.9360570287        2.5605681213       -2.8597637296
 H         -3.2766646681        3.1305053321       -1.8718032992
 O         -1.4841904699        0.5390982208       -1.8529942700
 C         -1.2326662108       -0.7490673494       -1.4207017003
 O         -0.4871796714       -1.4079862498       -2.1722863605
 H         -0.0165807302       -0.8025219308        1.5883318695
 C          0.5862216791       -1.6185546611        1.2178281592
 C         -0.0194445617       -2.6576458606        0.5216470392
 C          0.7744688774       -3.7040943011        0.0715057889
 C          2.1421037975       -3.6870946921        0.2887880186
 C          2.7461423384       -2.6255745726        0.9375087687
 C          1.9576732792       -1.5797534421        1.4045273090
 N          2.5227296601       -0.4718533927        2.0678896791
 S          2.2569568011        1.0581468576        1.4396223394
 O          3.0271767719        1.9437044070        2.2857549294
 O          0.8451308612        1.3218609787        1.3520649597
 C          2.9895726107        1.0098018374       -0.1853493308
 C          4.2540121711        1.5354361565       -0.3703065009
 C          4.8421690608        1.4438397663       -1.6213208611
 C          4.1641557001        0.8215780070       -2.6592968210
 C          2.8980570398        0.2947437378       -2.4560440309
 C          2.3023825601        0.3884113580       -1.2081079807
 H          1.3175887798       -0.0128000013       -1.0290961806
 H          2.3582012193       -0.1941803117       -3.2515508709
 H          4.6226780999        0.7464165768       -3.6326561811
 H          5.8258230910        1.8545499556       -1.7828649512
 H          4.7411084616        2.0123424160        0.4649010691
 H          3.5053727701       -0.5795488534        2.2792240489
 H          3.8155319584       -2.6032972534        1.0834856585
 H          2.7485387068       -4.5047959225       -0.0695931816
 H          0.3248843668       -4.5281611307       -0.4576052412
 C         -1.5077239317       -2.5609680395        0.2861814195
 H         -2.0176617516       -2.6358112993        1.2582657396
 C         -2.0521156226       -3.6272808190       -0.6391881006
 C         -2.4192766735       -4.9766914588       -0.0999395407
 C         -3.4930640529       -4.0206974980       -0.5218594304
 H         -4.0460692132       -4.2282582374       -1.4255595103
 H         -4.0781846924       -3.5344290677        0.2452241798
 H         -2.2383918042       -5.8449644488       -0.7153212909
 H         -2.2807432834       -5.1470693991        0.9570284092
 H         -1.6293867828       -3.5689904191       -1.6356744507
 O         -3.1383989901       -0.6474780086        1.6444858401
