  62
        -98.94564805
 C          1.1379573314        1.4268948345        0.7593614275
 C          2.0393569583        1.3998163056       -0.3316294397
 C          3.0094538754        0.2954958911       -0.3310918546
 C          2.9681108225       -0.6208349794        0.6531938100
 C          3.8632063390       -1.8225122517        0.7389940456
 C          3.2451093911       -3.0375556351        0.0334556893
 C          2.7121245019       -2.7405120089       -1.3677388418
 H          2.3217871854       -3.6766317473       -1.7719588251
 H          1.8708074507       -2.0475401142       -1.2907120429
 C          3.7563123402       -2.1686777062       -2.3366626509
 H          4.7602323524       -2.3720187363       -1.9617904934
 H          3.6597475447       -2.6786639750       -3.2974880464
 C          3.6146319397       -0.6709335166       -2.6120018530
 H          2.5843175477       -0.4445066737       -2.8985210765
 H          4.2534418018       -0.4190770961       -3.4628505058
 C          4.0059966380        0.2567468620       -1.4552162826
 H          4.9969673052       -0.0135526480       -1.0847778092
 H          4.0521118132        1.2763191811       -1.8490901972
 H          4.0003719788       -3.8235897919       -0.0219086022
 H          2.4145284455       -3.3996573501        0.6405671892
 H          4.8257732240       -1.5801059374        0.2923193437
 H          4.0137184077       -2.0634124646        1.7925646036
 O          2.0712665171       -0.5742551961        1.6720284065
 C          1.1367566516        0.4452291876        1.7505268965
 O          0.3723537352        0.3690423682        2.7333775457
 H         -1.2879877622        0.3187675159        0.2699726999
 C         -1.4828996719        1.0852583473       -0.4668201630
 C         -0.8674255200        2.3244737353       -0.3332358049
 C         -1.1276078500        3.3026697637       -1.2826380988
 C         -1.9721212579        3.0333159683       -2.3464590250
 C         -2.5863635905        1.8011481928       -2.4723714000
 C         -2.3423457219        0.8186328565       -1.5186404175
 N         -2.9390907868       -0.4491613515       -1.6069916013
 S         -3.5427156201       -1.1548756846       -0.2115952015
 O         -4.5305724021       -2.1008347257       -0.6883694735
 O         -4.0212739098       -0.1562589864        0.7157804252
 C         -2.1866402274       -2.0684264891        0.4895942778
 C         -1.8674267798       -1.8952225150        1.8210126360
 C         -0.8562091001       -2.6633950189        2.3749782413
 C         -0.1904536168       -3.5916500726        1.5911494394
 C         -0.5184798106       -3.7505512709        0.2525684469
 C         -1.5271037517       -2.9839097681       -0.3069761729
 H         -1.8153840161       -3.0840498924       -1.3402255295
 H          0.0075807790       -4.4704357233       -0.3539051831
 H          0.5869284904       -4.1967275333        2.0318037921
 H         -0.5887063331       -2.5214080819        3.4095202863
 H         -2.4009000786       -1.1560999222        2.3976471197
 H         -3.5736994554       -0.5650483894       -2.3841686308
 H         -3.2477991965        1.5960818694       -3.3005726262
 H         -2.1589448396        3.7974864669       -3.0856904764
 H         -0.6615198140        4.2703425185       -1.1983638281
 C          0.0702129519        2.5051162648        0.8365296928
 H         -0.4997835727        2.3058619413        1.7559069569
 C          0.6851789439        3.8840711711        0.9320570745
 C         -0.0983265830        5.0093178739        1.5360826161
 C          1.0603656447        4.4183736924        2.2802640637
 H          1.9662904150        4.9985650722        2.3711535782
 H          0.8542189039        3.7941140330        3.1377756828
 H          0.0123512741        5.9987629042        1.1189346041
 H         -1.0941069203        4.7897501163        1.8913683815
 H          1.3488145286        4.1067650773        0.1052336086
 O          2.0424382078        2.2519093432       -1.2579272586
