  62
        -98.93493700
 C         -2.1250281055       -0.8078414813        0.1955632432
 C         -2.9946897708       -0.2066165819        1.1391791867
 C         -3.8309487458        0.9045421732        0.6562702948
 C         -3.6862918041        1.3329164473       -0.6089354179
 C         -4.4066063293        2.4601875117       -1.3055016996
 C         -5.9187073953        2.5841482631       -1.0706225539
 C         -6.6557918149        1.2535353212       -0.8581652518
 H         -7.5132179729        1.2119682766       -1.5323677734
 H         -6.0014587947        0.4180860793       -1.1132185864
 C         -7.1743645759        1.0794676478        0.5715119206
 H         -7.9736996844        0.3345665382        0.5667686547
 H         -7.6104926675        2.0245411455        0.9022694023
 C         -6.1365508234        0.6224819107        1.5961423571
 H         -5.8647343153       -0.4200721776        1.4089860379
 H         -6.6008791228        0.6583408168        2.5844935596
 C         -4.8366469753        1.4424167808        1.6331629089
 H         -5.0316804209        2.4994793942        1.4695145109
 H         -4.3900245101        1.3192326812        2.6237003012
 H         -6.1021208718        3.2315322877       -0.2141959366
 H         -6.3315025351        3.0937687661       -1.9428707168
 H         -3.9216760141        3.3997867211       -1.0243957863
 H         -4.2119802710        2.3058594371       -2.3696684377
 O         -2.7790756677        0.7787693756       -1.4614878209
 C         -1.9836677406       -0.3003067573       -1.0959486398
 O         -1.2170484848       -0.6865234152       -1.9970434884
 H          0.2702011855        0.0392926198        1.3511288266
 C          0.8122418599       -0.6618788803        0.7274058685
 C          0.1548163822       -1.7933157713        0.2594665728
 C          0.8540286261       -2.6766123329       -0.5514643142
 C          2.1740689958       -2.4252660791       -0.8826940308
 C          2.8257199935       -1.3011593101       -0.4105647510
 C          2.1334741578       -0.4059839007        0.3948806440
 N          2.7858713611        0.7305224214        0.8998086325
 S          3.7923738356        1.6240754667       -0.0996488413
 O          3.8462945553        2.9357886791        0.5097708973
 O          3.3700125636        1.5756970555       -1.4799769586
 C          5.3771616918        0.8330158379        0.0884703532
 C          5.8519284826        0.6206781130        1.3680297689
 C          7.0856784420        0.0114321325        1.5313152264
 C          7.8215413118       -0.3697018699        0.4191170254
 C          7.3332903810       -0.1452494829       -0.8588750722
 C          6.0989605427        0.4626289506       -1.0291872288
 H          5.6757199404        0.6503841620       -2.0033428928
 H          7.9067126489       -0.4413666045       -1.7225627951
 H          8.7810513559       -0.8447474623        0.5491509369
 H          7.4682959110       -0.1649605494        2.5236730510
 H          5.2502720611        0.9326194699        2.2052514881
 H          2.1922297043        1.3341071451        1.4496157117
 H          3.8510967586       -1.1006124160       -0.6742276164
 H          2.7040154010       -3.1155587260       -1.5212232063
 H          0.3589182223       -3.5480320789       -0.9466059469
 C         -1.2858696286       -1.9835945271        0.6621715949
 H         -1.3357496206       -1.9297359162        1.7630403129
 C         -1.8488050746       -3.3424984033        0.2733918787
 C         -3.3192973039       -3.5352348255        0.0575865077
 C         -2.3733846238       -3.6329721086       -1.0996499434
 H         -2.1848818317       -4.6082847499       -1.5241871230
 H         -2.3543838340       -2.8320462917       -1.8220145940
 H         -3.9539551281       -2.6634267719        0.1259915894
 H         -3.7788806519       -4.4392743474        0.4278895989
 H         -1.3295430095       -4.1523830725        0.7764070889
 O         -3.0629581124       -0.5760927951        2.3418833835
