  62
        -98.94550297
 C          2.2497768590        0.9545303488        0.2048141350
 C          1.5716814093        0.2401895798       -0.8142510377
 C          1.9915514928       -1.1551907765       -1.0127119051
 C          2.9195619505       -1.6894435080       -0.2004336303
 C          3.4274906912       -3.0995644935       -0.2801909841
 C          2.6199618469       -4.0483169840        0.6150322768
 C          1.1057430060       -3.9402998540        0.4325172033
 H          0.6467780132       -4.6965782460        1.0742350278
 H          0.7597670059       -2.9692732598        0.7957631339
 C          0.6214915178       -4.1337205379       -1.0111701898
 H          1.3915732356       -4.6342269541       -1.6004298574
 H         -0.2549648942       -4.7851630758       -0.9982251210
 C          0.2020392598       -2.8362541852       -1.7046114063
 H         -0.4583448308       -2.2766907517       -1.0373705613
 H         -0.3699424005       -3.0942805115       -2.6001224086
 C          1.3485246355       -1.9139841845       -2.1393688434
 H          2.0956240923       -2.4893925959       -2.6911094524
 H          0.9309155377       -1.1580828611       -2.8109351956
 H          2.9400522999       -5.0714806218        0.4067573510
 H          2.8542354908       -3.8251246606        1.6587177805
 H          3.3814317069       -3.4352117193       -1.3146105793
 H          4.4687093385       -3.1060112265        0.0483116075
 O          3.4920881819       -0.9981542885        0.8196187201
 C          3.1586013135        0.3247701222        1.0569603229
 O          3.7318725801        0.8262543959        2.0472321748
 H          0.2636863417        1.0844787451        2.0728300303
 C         -0.2823686935        1.7520075020        1.4158943104
 C          0.4226469440        2.5646350283        0.5360079961
 C         -0.2934358687        3.4087522489       -0.3020062018
 C         -1.6778451215        3.4079118626       -0.2835743338
 C         -2.3745834912        2.5510087927        0.5497717123
 C         -1.6647040254        1.7196604300        1.4047582696
 N         -2.3801183857        0.7647152876        2.1892507853
 S         -2.3094044718       -0.7526329011        1.4441345065
 O         -3.0388009085       -1.6498626206        2.3167823734
 O         -0.9441387022       -1.1439034617        1.1654642130
 C         -3.2205501716       -0.4739777040       -0.0540938406
 C         -2.5621421379       -0.0448922669       -1.1894544337
 C         -3.3082286795        0.2102624739       -2.3304108312
 C         -4.6835413330        0.0381417145       -2.3155081293
 C         -5.3277844656       -0.3898368246       -1.1639327727
 C         -4.5910387828       -0.6462357547       -0.0195091856
 H         -5.0426061837       -0.9830862416        0.8991822484
 H         -6.3977372273       -0.5220111224       -1.1543054726
 H         -5.2563842180        0.2402397913       -3.2069439025
 H         -2.8032111922        0.5480355372       -3.2210220803
 H         -1.4910305318        0.0916405809       -1.1762436666
 H         -1.9990698059        0.6648531365        3.1215967166
 H         -3.4515815721        2.5084020801        0.5420107262
 H         -2.2204307437        4.0610984700       -0.9492501556
 H          0.2336996150        4.0397185737       -0.9987345785
 C          1.9219249421        2.4083691347        0.5147810336
 H          2.2971740837        2.5718678185        1.5389897096
 C          2.6302159098        3.4171858553       -0.3757261079
 C          3.9744124519        3.1096518314       -0.9635216152
 C          2.7751663804        3.2222243742       -1.8537176355
 H          2.6949729317        4.0887522037       -2.4935260157
 H          2.3645429787        2.3218934441       -2.2815627462
 H          4.7145239625        3.8952920265       -0.9897839754
 H          4.3866851499        2.1279217840       -0.7785901171
 H          2.4811869676        4.4351293621       -0.0288413021
 O          0.6751992110        0.7357024101       -1.5438147777
