  62
        -98.93077734
 C         -2.5001188447       -1.1871268377       -0.3373334951
 C         -2.2520548890        0.1285688947        0.1220197679
 C         -3.4118798938        0.8553428791        0.6783349363
 C         -4.6015667919        0.2367508865        0.7599440620
 C         -5.9056860460        0.8114141015        1.2394108604
 C         -6.7235047620        1.3617427433        0.0586843114
 C         -6.4123699295        2.8089977496       -0.3207373639
 H         -6.9554584017        3.0270884868       -1.2431392311
 H         -6.8012308173        3.4739219379        0.4532777048
 C         -4.9300463795        3.1252810468       -0.5365969545
 H         -4.8659839983        4.0312785837       -1.1423458553
 H         -4.4613869087        2.3215957071       -1.1074231030
 C         -4.1634342956        3.3510667092        0.7753218313
 H         -3.6123976887        4.2918897070        0.7147165787
 H         -4.8784529722        3.4647404642        1.5900046607
 C         -3.1404189625        2.2626442604        1.1359543351
 H         -2.1692660276        2.5146657906        0.6978794882
 H         -2.9950388131        2.2537452729        2.2216327302
 H         -7.7846815626        1.2980172001        0.3075810217
 H         -6.5502040069        0.7096020227       -0.8012749373
 H         -6.4602929297       -0.0129786002        1.6925712413
 H         -5.7368131651        1.5755708065        1.9922440794
 O         -4.7864538063       -1.0472915875        0.3469624163
 C         -3.7555447209       -1.7860571646       -0.2005159427
 O         -4.0727613907       -2.9497918869       -0.5175857111
 H          1.0511337819       -0.8960187748       -1.3853013120
 C          0.9930195530       -1.3840835874       -0.4248146922
 C         -0.1820345265       -2.0097200538       -0.0444661747
 C         -0.2480650222       -2.5949637263        1.2168669892
 C          0.8371604018       -2.5540026831        2.0704310522
 C          2.0131058744       -1.9338911813        1.6848327157
 C          2.0863893518       -1.3391982556        0.4330749191
 N          3.2795923868       -0.7256951904        0.0048139187
 S          4.1925744665        0.1854096867        1.0918664013
 O          4.8156234372       -0.7102308911        2.0346108352
 O          3.4029015029        1.2538936350        1.6632195008
 C          5.4264902757        0.8413255360       -0.0140119909
 C          5.2646144570        2.1076393132       -0.5426273925
 C          6.2196730806        2.5935647364       -1.4220828729
 C          7.3119786452        1.8080328736       -1.7581063224
 C          7.4602633046        0.5384574886       -1.2195074783
 C          6.5098627250        0.0472794247       -0.3389251114
 H          6.5867112182       -0.9285151616        0.1111723373
 H          8.3120142370       -0.0680957638       -1.4818428710
 H          8.0535668784        2.1892234063       -2.4422847019
 H          6.1082655898        3.5809469037       -1.8405866080
 H          4.4036332253        2.6863156467       -0.2475450069
 H          3.1361962461       -0.1962082010       -0.8450817955
 H          2.8627082000       -1.8899294474        2.3462507825
 H          0.7704280844       -3.0077008716        3.0482844973
 H         -1.1692273315       -3.0729550954        1.5233340513
 C         -1.4040270611       -2.0591630009       -0.9277243594
 H         -1.8068160224       -3.0841223160       -0.8805001742
 C         -1.1011646777       -1.7848377453       -2.3931159319
 C         -2.1989622760       -1.3964999259       -3.3370307564
 C         -1.1264288682       -0.4106248160       -2.9889040758
 H         -0.3926298452       -0.1689172872       -3.7443442673
 H         -1.3726392616        0.4151773497       -2.3407494835
 H         -3.1848861892       -1.2515396552       -2.9194018993
 H         -2.2036076037       -1.8276182155       -4.3267496690
 H         -0.3533021717       -2.4698716262       -2.7812348801
 O         -1.1279854395        0.6926409599        0.0674281289
