  62
        -98.94558872
 C         -2.3397393895        0.0337689015       -0.1308429918
 C         -1.5474335061       -0.5214805308        0.8981684308
 C         -1.2751507425       -1.9668831464        0.8169203373
 C         -1.6968182978       -2.6556245427       -0.2597106474
 C         -1.5847152288       -4.1248718578       -0.6080568275
 C         -0.6203372338       -5.0366079382        0.1452996680
 C          0.8581677149       -4.7292263130       -0.0826616043
 H          1.4451165553       -5.4132005426        0.5351142956
 H          1.1019956232       -4.9315480551       -1.1287152956
 C          1.2873311140       -3.2963585963        0.2249005979
 H          2.3696407825       -3.2316516967        0.0747229326
 H          0.8357042200       -2.6039843735       -0.4894123322
 C          0.9845762026       -2.8210448230        1.6443452090
 H          1.3717810784       -3.5461194941        2.3632264616
 H          1.5240521061       -1.8825137585        1.7898855742
 C         -0.5004186722       -2.5617240474        1.9590161459
 H         -0.9930061162       -3.4677116499        2.3074458707
 H         -0.5483458802       -1.8297559778        2.7705473515
 H         -0.8058621740       -6.0511137692       -0.2182666764
 H         -0.8468659548       -5.0337550196        1.2073093083
 H         -2.5972441694       -4.5327275153       -0.5091452032
 H         -1.3430373752       -4.1547884071       -1.6755347895
 O         -2.4046556035       -2.0606689856       -1.2647057804
 C         -2.7465703369       -0.7221627403       -1.2270231442
 O         -3.4053623368       -0.3282482280       -2.2128049733
 H         -0.5692776432        1.0758500979       -1.6600794219
 C         -0.4023619380        1.9219641350       -1.0095358957
 C         -1.4012498735        2.3185552726       -0.1297840561
 C         -1.1684451325        3.4210380902        0.6825552872
 C          0.0460900031        4.0841995856        0.6306426896
 C          1.0579330667        3.6499950153       -0.2066315363
 C          0.8299440085        2.5534904465       -1.0302609397
 N          1.8314881211        2.0467680173       -1.8843542476
 S          2.3269683782        0.4646998156       -1.6276596445
 O          3.4005300012        0.2525040550       -2.5750178308
 O          1.2026191091       -0.4285684606       -1.7275131566
 C          2.9994539357        0.4780123195        0.0250204862
 C          4.3729917915        0.4777563068        0.1789215929
 C          4.9080983322        0.5552587688        1.4541976082
 C          4.0641535350        0.6459609510        2.5512635744
 C          2.6890412226        0.6526338731        2.3796906695
 C          2.1453960032        0.5659723365        1.1062876995
 H          1.0768143186        0.5586256310        0.9591131936
 H          2.0217911358        0.7206956484        3.2242057574
 H          4.4785162590        0.7108492470        3.5449187035
 H          5.9778261107        0.5480233017        1.5880714170
 H          4.9881201569        0.4086975201       -0.7037577637
 H          2.6467323014        2.6407950642       -1.9537880199
 H          2.0147124740        4.1497322951       -0.2241636526
 H          0.2140142471        4.9392670616        1.2673648741
 H         -1.9350006386        3.7567264804        1.3615783366
 C         -2.6790318362        1.5142340339       -0.1152377658
 H         -3.2184741688        1.7110056852       -1.0537364320
 C         -3.5869566644        1.8399935066        1.0520983964
 C         -4.5699674364        2.9665514862        0.9531305300
 C         -5.0512425834        1.5476874188        0.9307881395
 H         -5.5742341187        1.1639601232        1.7937731186
 H         -5.3972961221        1.1367280117       -0.0068783454
 H         -4.7680575312        3.5580412138        1.8342031150
 H         -4.6003648715        3.5244573291        0.0293719599
 H         -3.1169943940        1.6498417731        2.0099169534
 O         -1.0928155750        0.1568311399        1.8576620638
