  62
        -98.94410811
 C          2.1971931180        1.2683957729       -0.1493890975
 C          2.5962615563        0.1757500770       -0.9563751218
 C          3.9760975235       -0.2874419007       -0.7598999126
 C          4.7760291845        0.3395851225        0.1214082123
 C          6.2118500372       -0.0019733908        0.4141141903
 C          6.3876391513       -1.1332711524        1.4363796271
 C          6.0383850056       -2.5317417279        0.9256083128
 H          6.5706182750       -2.7202203828       -0.0072810099
 H          6.4119780058       -3.2449136349        1.6631151606
 C          4.5362615335       -2.7748801912        0.7216723050
 H          4.2610871595       -3.7402939905        1.1523540498
 H          3.9662160150       -2.0128368654        1.2582866386
 C          4.0882629506       -2.7878061968       -0.7399831134
 H          4.5471168632       -3.6339230937       -1.2565645955
 H          3.0039410861       -2.9257909871       -0.7643864433
 C          4.4200692105       -1.5047013479       -1.5130918354
 H          5.4884503544       -1.4566604486       -1.7226975301
 H          3.8767196421       -1.5260267277       -2.4609926773
 H          7.4356584974       -1.1337035995        1.7446612955
 H          5.7824141191       -0.9056905287        2.3169039114
 H          6.7229242049       -0.2644114875       -0.5125676984
 H          6.6698799327        0.9025106259        0.8201653307
 O          4.3604026639        1.4033521222        0.8592294500
 C          3.0609314628        1.8735118182        0.7643070929
 O          2.8004632084        2.8233322803        1.5302168402
 O          1.8489993516       -0.3830558646       -1.8008518465
 C          0.7795790725        1.8084681867       -0.2374008382
 C         -0.1824636698        0.7127686797        0.1519458225
 C         -0.1272872350        0.2135121749        1.4511177457
 C         -0.9638501455       -0.8096867257        1.8529184361
 C         -1.8746271930       -1.3598393186        0.9673258724
 C         -1.9412171281       -0.8658221381       -0.3278793492
 C         -1.1076168277        0.1728396352       -0.7260316323
 H         -1.1681269774        0.5384208807       -1.7386417779
 N         -2.8647249515       -1.4168127087       -1.2306653052
 S         -4.4291579113       -1.6827261442       -0.7059699991
 O         -4.4856220791       -2.8925922916        0.0758860637
 O         -5.2378088322       -1.6661612287       -1.9044222569
 C         -4.8102121247       -0.2769432304        0.3248720205
 C         -4.8235820525        0.9729566463       -0.2624330040
 C         -5.0790498291        2.0819968356        0.5269931939
 C         -5.3123538566        1.9236471819        1.8847432102
 C         -5.2990573247        0.6621347125        2.4586264764
 C         -5.0437961774       -0.4510153417        1.6734494082
 H         -5.0242514035       -1.4491680470        2.0795639442
 H         -5.4828885683        0.5421300962        3.5141588258
 H         -5.5068250452        2.7893681219        2.4980476523
 H         -5.0922652136        3.0643621462        0.0827394340
 H         -4.6453573270        1.0606120179       -1.3220599987
 H         -2.8432367106       -1.0012176983       -2.1497690371
 H         -2.5220873553       -2.1716713685        1.2562077273
 H         -0.9048067053       -1.1881022652        2.8621830842
 H          0.5912597850        0.6379610656        2.1394828451
 H          0.7123505965        2.6041563058        0.5174610647
 C          0.5181658480        2.4085777928       -1.6023080255
 C         -0.5854402523        3.4071858075       -1.7771513788
 C          0.8446123792        3.8518699682       -1.8344074423
 H          1.2597302462        4.1388464810       -2.7889792691
 H          1.2429197424        4.4116944787       -1.0007341104
 H         -1.1538224856        3.3951669840       -2.6949264326
 H         -1.1611875166        3.6701137397       -0.9029300969
 H          0.7201672717        1.7182459578       -2.4129149972
