  62
        -98.94467863
 C         -2.5495202416       -0.8792442248        0.2893793259
 C         -2.5122856053        0.0064554160       -0.8150044809
 C         -2.8343221970        1.4116071451       -0.5262386542
 C         -3.1654173625        1.7769061423        0.7243462213
 C         -3.4627752856        3.1802715078        1.1637238354
 C         -2.1994821460        3.8863431020        1.6745505083
 C         -0.9971617295        3.7769707112        0.7356938827
 H         -0.1867539178        4.3611474759        1.1780043792
 H         -0.6505423422        2.7409587143        0.6953946653
 C         -1.2556007256        4.2719917068       -0.6939121963
 H         -0.4008211139        4.8720770574       -1.0132325654
 H         -2.1347030368        4.9181207376       -0.7130512016
 C         -1.4193858417        3.1548818231       -1.7264910927
 H         -0.5943521057        2.4438945367       -1.6185342972
 H         -1.3404776035        3.5973288372       -2.7238113842
 C         -2.7456301080        2.3846317975       -1.6675761824
 H         -3.5795531774        3.0893170723       -1.6435116197
 H         -2.8261458832        1.7877049160       -2.5808288363
 H         -2.4376684249        4.9393280158        1.8371396961
 H         -1.9216260645        3.4473526960        2.6354044510
 H         -3.8885893703        3.7338369905        0.3292376808
 H         -4.1947941459        3.1379464968        1.9722316101
 O         -3.2323347246        0.8944343382        1.7527079017
 C         -2.8959082314       -0.4340907857        1.5698382104
 O         -2.9576758963       -1.1220095687        2.6085336747
 O         -2.2287514244       -0.3313653394       -1.9976102559
 C         -2.1393543837       -2.3450293075        0.2095204656
 C         -0.6320646149       -2.4085106257        0.2700328822
 C          0.0297677709       -2.9608654545        1.3604214956
 C          1.4105731546       -2.9105236717        1.4481260545
 C          2.1571914476       -2.2820116302        0.4661868366
 C          1.5019660882       -1.7282895472       -0.6243797704
 C          0.1254732766       -1.8198809003       -0.7325528294
 H         -0.3696475546       -1.3702121528       -1.5803631267
 N          2.2454849862       -0.9857659496       -1.5817482723
 S          2.4841120446        0.5975915372       -1.0360365853
 O          1.3705232821        1.0563622143       -0.2359005265
 O          2.7987450151        1.3811204133       -2.2109630870
 C          3.9367730171        0.4293829382       -0.0229411776
 C          3.8292691604        0.5165392693        1.3506884581
 C          4.9676522595        0.3445588234        2.1230999681
 C          6.1850854472        0.0882665926        1.5108421706
 C          6.2762836866        0.0057471749        0.1290940832
 C          5.1421778818        0.1763874422       -0.6483907049
 H          5.1648123999        0.1250601102       -1.7241445914
 H          7.2250563112       -0.1925920818       -0.3428346305
 H          7.0681926477       -0.0474829579        2.1149949018
 H          4.8981296852        0.4081246595        3.1971782807
 H          2.8601388550        0.7120790917        1.7818863852
 H          1.7643851118       -0.9327351046       -2.4709112168
 H          3.2303141261       -2.2108771062        0.5401698643
 H          1.9090018722       -3.3456056391        2.3007742330
 H         -0.5499138904       -3.4064324635        2.1558774045
 H         -2.5356975435       -2.8174900137        1.1180443911
 C         -2.6947644043       -3.0775102119       -0.9943910965
 C         -2.7692905195       -4.5734936241       -0.9581123221
 C         -4.0246239495       -3.7581438340       -0.8864100587
 H         -4.6816603155       -3.7406432675       -1.7428606691
 H         -4.5409916009       -3.6975030251        0.0606680659
 H         -2.5626369321       -5.1206357165       -1.8649734701
 H         -2.4360199037       -5.0688740494       -0.0587874143
 H         -2.4556446851       -2.6060181918       -1.9380531105
