  62
        -98.93487493
 C         -2.4951411700       -0.9169532575        0.2950169000
 C         -1.9222904277       -0.0373584581       -0.6556108127
 C         -2.3159010294        1.3791603452       -0.5463212015
 C         -3.1615586187        1.7647875730        0.4232369271
 C         -3.7004884693        3.1470521434        0.6902439965
 C         -2.6909779134        4.3062963133        0.6713570506
 C         -1.2569477671        3.9349018382        1.0784303718
 H         -0.9093317585        4.6448825059        1.8314763774
 H         -1.2398942212        2.9441249208        1.5362977178
 C         -0.2721820959        3.9767125950       -0.0933190867
 H         -0.4750918132        4.8732351304       -0.6828121543
 H          0.7412735022        4.0672944864        0.3044944107
 C         -0.2838256709        2.7588064998       -1.0169564746
 H          0.1739906267        1.9027581825       -0.5124048882
 H          0.3448058034        2.9872067810       -1.8796361926
 C         -1.6664503474        2.3172804818       -1.5214633706
 H         -2.3005850412        3.1734509989       -1.7381688833
 H         -1.5182444990        1.7465622097       -2.4418919075
 H         -2.6693430271        4.7523937635       -0.3220437793
 H         -3.0739454688        5.0699703849        1.3501777672
 H         -4.4946686930        3.3514116012       -0.0332115418
 H         -4.1695226747        3.0842465966        1.6749500665
 O         -3.6789532095        0.8859420809        1.3280190529
 C         -3.3472586737       -0.4582535485        1.3008887620
 O         -3.8588720334       -1.1302061096        2.2194293374
 H         -0.2270404256       -1.1143658669        1.6340670391
 C          0.1981070737       -1.8208976756        0.9305872249
 C         -0.6564410278       -2.5805571945        0.1398569067
 C         -0.0980393829       -3.4802842222       -0.7578482847
 C          1.2767142063       -3.6159604226       -0.8489478618
 C          2.1225347574       -2.8577952486       -0.0615192509
 C          1.5759734762       -1.9369318631        0.8253963832
 N          2.4058956436       -1.1561436263        1.6459935703
 S          3.8369434474       -0.4669102349        1.1370453360
 O          4.7351804031       -1.5066739186        0.7003235434
 O          4.2749760437        0.3254265774        2.2635455278
 C          3.4707377645        0.6147573034       -0.2350390830
 C          3.5054375442        1.9793680144       -0.0240315098
 C          3.2681328302        2.8314158569       -1.0899118178
 C          2.9873646343        2.3064772077       -2.3420793286
 C          2.9414583855        0.9347664928       -2.5351210746
 C          3.1906761849        0.0769804900       -1.4756470598
 H          3.1737228561       -0.9925928006       -1.6013185263
 H          2.7135254748        0.5267137287       -3.5065588611
 H          2.8067017638        2.9697509300       -3.1735495276
 H          3.3030053690        3.8989557068       -0.9423871990
 H          3.7340665874        2.3433314507        0.9647858847
 H          1.9073350463       -0.5233764205        2.2529786772
 H          3.1938791126       -2.9640389559       -0.1190041304
 H          1.6972877362       -4.3245862493       -1.5465614471
 H         -0.7347858354       -4.0680952871       -1.3976431594
 C         -2.1444211742       -2.3938807474        0.3231820250
 H         -2.3944857503       -2.7250514928        1.3456123665
 C         -2.9792753389       -3.2471916401       -0.6216902596
 C         -4.3138325284       -2.7798558298       -1.1192224378
 C         -3.1575376507       -2.8864518186       -2.0649370464
 H         -3.1670094035       -3.6814688618       -2.7962361116
 H         -2.6879645265       -1.9788872669       -2.4091049144
 H         -5.1118111341       -3.5035641660       -1.1938616893
 H         -4.6461600872       -1.7957347256       -0.8215619236
 H         -2.9050198000       -4.3046373467       -0.3873512199
 O         -1.1216803857       -0.3989951147       -1.5543467031
