  62
        -98.94472102
 C         -1.5167838415       -1.7590475589       -0.4619689987
 C         -1.5439955610       -0.5834137689       -1.2535109688
 C         -2.7552989906        0.2456530317       -1.1303520189
 C         -3.7393978508       -0.1305807078       -0.2960851488
 C         -4.9995345504        0.6440216728       -0.0423038689
 C         -4.8372119599        1.6069137028        1.1414554011
 C         -3.5843215395        2.4802431322        1.0659861110
 H         -3.6027209592        3.1509201623        1.9283390209
 H         -2.6936607998        1.8556008518        1.1718583110
 C         -3.4608670791        3.3073995221       -0.2209375091
 H         -3.1528450886        4.3207427520        0.0454900909
 H         -4.4323888891        3.3802262025       -0.7126557691
 C         -2.4228797394        2.7741835215       -1.2102680590
 H         -2.2357515390        3.5495479814       -1.9587732891
 H         -1.4835289495        2.5939499911       -0.6808225290
 C         -2.8178266300        1.4959616817       -1.9617294189
 H         -3.8114614899        1.6185027421       -2.3991109590
 H         -2.0994156901        1.3531520313       -2.7744196489
 H         -4.7896636902        1.0202971029        2.0619618311
 H         -5.7221978396        2.2445216033        1.1901788310
 H         -5.2656102901        1.1983555229       -0.9403227689
 H         -5.7971528007       -0.0653890768        0.1860010012
 O         -3.6795102913       -1.2639429778        0.4501462412
 C         -2.5686152217       -2.0876304383        0.3970260013
 O         -2.6379694122       -3.0862149482        1.1433956714
 H          0.4217599992       -0.2466166197        0.3519472611
 C          0.9110142888       -1.0160575899        0.9244213712
 C          0.6277064382       -2.3490915598        0.6666016613
 C          1.2464416477       -3.3250780101        1.4397276514
 C          2.1343425079       -2.9685234504        2.4392652713
 C          2.4132878285       -1.6381784605        2.6934282912
 C          1.7845666690       -0.6519327703        1.9388976612
 N          2.0033134697        0.6976920696        2.2217464811
 S          1.7100483902        1.9569619597        1.1698549310
 O          2.2181969508        3.1114355395        1.8811165309
 O          0.3172967803        2.0000613703        0.8082773710
 C          2.7568171801        1.6492852791       -0.2399455590
 C          4.1110210202        1.8670020385       -0.0617679390
 C          4.9767065201        1.6328067280       -1.1158553990
 C          4.4753636399        1.1887247382       -2.3309198890
 C          3.1159121598        0.9799010488       -2.4936993889
 C          2.2416445499        1.2067458493       -1.4400640590
 H          1.1827410398        1.0307920598       -1.5512552989
 H          2.7188950796        0.6362796089       -3.4353067789
 H          5.1470604498        1.0067617278       -3.1550282990
 H          6.0346509402        1.7977444375       -0.9899189790
 H          4.4557116804        2.2336704484        0.8914433510
 H          2.7259947098        0.9017117093        2.8935043511
 H          3.0947704287       -1.3597168008        3.4824027212
 H          2.6095577375       -3.7344997506        3.0330198214
 H          1.0106190972       -4.3652519500        1.2696105714
 C         -0.3424797720       -2.7239173694       -0.4272609887
 H         -0.7761713525       -3.7001563092       -0.1550678886
 C          0.3385109579       -2.8918007698       -1.7790079387
 C          1.6875016182       -2.3260841405       -2.0923178487
 C          1.5200333075       -3.8046806504       -1.9265323486
 H          1.5754906972       -4.4341219205       -2.8017348586
 H          1.9211973073       -4.2549275505       -1.0318828086
 H          1.8431098084       -1.9265577206       -3.0819791887
 H          2.2000372785       -1.7765468707       -1.3176376188
 H         -0.3810101021       -2.8962074695       -2.5910221087
 O         -0.6260326208       -0.2288718494       -2.0358560188
