  62
        -98.93540614
 C         -1.7785698561       -1.4281319456        0.5358155224
 C         -1.7925160248       -0.0931559768        1.0098581079
 C         -3.0340414364        0.6777730980        0.8258512677
 C         -4.0899891987        0.0852877107        0.2378004511
 C         -5.4965408828        0.5799728032       -0.0301543043
 C         -5.8514142388        2.0531690408        0.1497570822
 C         -5.2254544206        2.9878448420       -0.8859718300
 H         -5.7216672103        2.8201615241       -1.8452346337
 H         -5.4245276249        4.0185181440       -0.5849705034
 C         -3.7257398406        2.8131891195       -1.1102636433
 H         -3.5238416491        1.8010043813       -1.4664750362
 H         -3.4243365774        3.5001344687       -1.9056218293
 C         -2.8433283886        3.0961166930        0.1031850897
 H         -3.0375652489        4.1050439195        0.4726683624
 H         -1.8047304544        3.0545983457       -0.2358724005
 C         -2.9918860895        2.1107011864        1.2738258655
 H         -2.1083406642        2.2033310782        1.9128275946
 H         -3.8588195453        2.3525746011        1.8838568574
 H         -6.9374843074        2.1278298344        0.0478849459
 H         -5.6089649852        2.3758624403        1.1581021808
 H         -5.7333286671        0.2756052837       -1.0547257862
 H         -6.1444306753       -0.0152266859        0.6229169181
 O         -4.0308996619       -1.2039701972       -0.2035634111
 C         -2.8844847657       -1.9832902845       -0.1057895417
 O         -3.0069685616       -3.1105330418       -0.6166026881
 H          2.1120191841       -1.4416288315        0.9606854020
 C          1.7879918873       -1.4718543201       -0.0682829100
 C          0.4878969157       -1.8403275570       -0.3774100403
 C          0.0960026502       -1.8692912209       -1.7124274930
 C          0.9928801910       -1.5370839898       -2.7106379448
 C          2.2866219620       -1.1564790724       -2.3976831090
 C          2.6877508269       -1.1218533483       -1.0671930641
 N          4.0016343257       -0.7657035160       -0.7284364597
 S          4.3383020196        0.2553415807        0.5538783515
 O          5.7498275110        0.5383951903        0.4159236532
 O          3.9307447823       -0.3583729384        1.7910674464
 C          3.4027863640        1.7396373100        0.2353732842
 C          2.0955720150        1.8454952123        0.6645415507
 C          1.3900628982        3.0016815412        0.3689417415
 C          1.9917010002        4.0231005490       -0.3481266906
 C          3.3061714292        3.8995520006       -0.7739510315
 C          4.0181298952        2.7481285802       -0.4827313873
 H          5.0454376318        2.6162224268       -0.7818745302
 H          3.7756952230        4.6957076934       -1.3290245192
 H          1.4346300863        4.9191981980       -0.5725187887
 H          0.3694203787        3.0817306485        0.7082825707
 H          1.6276228121        1.0475013136        1.2181244181
 H          4.5882053287       -0.5411316141       -1.5191254743
 H          2.9832083215       -0.8921388033       -3.1786449064
 H          0.6802542807       -1.5678250660       -3.7435360019
 H         -0.9160109972       -2.1603671045       -1.9547447950
 C         -0.4795837047       -2.1900924667        0.7247894913
 H         -0.0524619711       -1.8016518022        1.6643769004
 C         -0.6578008061       -3.6900603784        0.9013141969
 C         -0.2563462434       -4.6957549131       -0.1311865058
 C          0.5431575973       -4.5602095106        1.1278243132
 H          0.4828189874       -5.3424901193        1.8692622994
 H          1.5149852183       -4.0939063475        1.0564843805
 H         -0.8897870284       -5.5602657281       -0.2574100460
 H          0.1784170747       -4.3384434315       -1.0513177982
 H         -1.5448221492       -3.9271912908        1.4793158076
 O         -0.7999513280        0.4335771380        1.5809349083
