  62
        -98.93759845
 C          1.9355361468        1.3972176477       -0.0166222357
 C          2.5863159310        0.7599212420        1.0654739741
 C          3.7852226922       -0.0237003098        0.7325347048
 C          4.1807298023       -0.1001266977       -0.5514547123
 C          5.3326156718       -0.9192019657       -1.0608600208
 C          4.9284930035       -2.4051989521       -1.1424073836
 C          5.6922346972       -3.3200026446       -0.1844411025
 H          5.1795471824       -4.2843715677       -0.1750622627
 H          6.6973136012       -3.4855762357       -0.5779599583
 C          5.8305659755       -2.8141293870        1.2547815572
 H          6.1495436624       -3.6646782048        1.8609780919
 H          6.6319936524       -2.0759088765        1.3089806623
 C          4.5652269194       -2.2117417254        1.8790264481
 H          3.6724595946       -2.6025894567        1.3897560827
 H          4.5187416099       -2.5277409877        2.9232785106
 C          4.5185669363       -0.6720690015        1.8743530441
 H          5.5366347903       -0.2765005202        1.9259260197
 H          3.9903803947       -0.3369335472        2.7719878680
 H          3.8569529207       -2.4807259064       -0.9442582736
 H          5.0836269925       -2.7693915203       -2.1591240758
 H          5.5866965850       -0.5406640744       -2.0510892466
 H          6.1926329348       -0.7914985520       -0.4072177390
 O          3.5165660329        0.5094993885       -1.5671591169
 C          2.3774831284        1.2670118175       -1.3331300913
 O          1.8684082412        1.7578562322       -2.3571899192
 O          2.1791002873        0.8385468704        2.2569955509
 C          0.6925239503        2.2249996839        0.2585264846
 C         -0.4965420130        1.6063792467       -0.4350263749
 C         -1.3660584923        2.3146811984       -1.2529019560
 C         -2.4248717821        1.6721337218       -1.8726206207
 C         -2.6468751173        0.3212209427       -1.6830317420
 C         -1.7972174088       -0.3920091193       -0.8455555684
 C         -0.7387219814        0.2534805326       -0.2256765828
 H         -0.0742375972       -0.3045894105        0.4224503247
 N         -2.0197948822       -1.7609265772       -0.6298147654
 S         -3.5886478483       -2.3056955275       -0.4397178672
 O         -3.4732359922       -3.5090475894        0.3542040512
 O         -4.2094080034       -2.4630130353       -1.7315974591
 C         -4.4315795729       -1.0306978337        0.4810293656
 C         -3.9278908730       -0.6763566869        1.7169828243
 C         -4.5598439453        0.3250470426        2.4359036844
 C         -5.6798882634        0.9510759876        1.9100949966
 C         -6.1766355539        0.5800296148        0.6704916961
 C         -5.5470903704       -0.4194883969       -0.0540814922
 H         -5.8975365893       -0.7374170768       -1.0225727947
 H         -7.0487790912        1.0669069411        0.2649594723
 H         -6.1676358973        1.7319968188        2.4717557574
 H         -4.1743591106        0.6143427693        3.4004488462
 H         -3.0580739961       -1.1847801194        2.1016303494
 H         -1.3925439139       -2.1849225529        0.0367090126
 H         -3.4517025190       -0.1956621534       -2.1797787234
 H         -3.0841156014        2.2315943205       -2.5183624716
 H         -1.2082857666        3.3673887991       -1.4177910709
 H          0.5296060208        2.1512502985        1.3439969740
 C          0.9253236897        3.6766701817       -0.1008157875
 C          0.1626628493        4.7579450834        0.6029344250
 C          1.6210284848        4.5636319634        0.8864526026
 H          2.3232659521        5.2953255969        0.5160241188
 H          1.9069772422        4.1259409857        1.8318600432
 H         -0.1364285137        5.6285723104        0.0392401928
 H         -0.5444533002        4.4579871666        1.3611682375
 H          1.1640213270        3.8136678257       -1.1492728340
