  62
        -98.94472329
 C         -1.8772094192       -1.0477832103       -0.1860542485
 C         -3.0465676091       -1.1651601698        0.6119616917
 C         -4.2770759392       -0.5855404306        0.0609810012
 C         -4.2383393695        0.0079314782       -1.1456254094
 C         -5.3985807797        0.6966442673       -1.8020593899
 C         -5.4374121900        2.1869892676       -1.4356148914
 C         -5.3107241399        2.4587022391        0.0635384183
 H         -4.3153315798        2.1571866397        0.3984314785
 H         -5.3817793802        3.5393554493        0.2051073573
 C         -6.3695499197        1.7588056497        0.9271011591
 H         -6.7549655998        2.4742909504        1.6565289484
 H         -7.2089809097        1.4478280089        0.3041683195
 C         -5.8500541594        0.5550038806        1.7152506003
 H         -6.6119090892        0.2736708012        2.4470799906
 H         -4.9528025594        0.8404176514        2.2702335899
 C         -5.5275393792       -0.6950974001        0.8870661915
 H         -5.3547910689       -1.5196622194        1.5847593222
 H         -6.3828505191       -0.9503949709        0.2581990118
 H         -4.6125704502        2.6907476573       -1.9450873620
 H         -6.3733980201        2.6092458271       -1.8057596017
 H         -5.2899644198        0.6003867062       -2.8836858598
 H         -6.3233466596        0.2120333374       -1.4950007094
 O         -3.1078233996        0.0884664577       -1.8888572895
 C         -1.9009872694       -0.4229586316       -1.4328736391
 O         -0.9607559495       -0.2554566921       -2.2357272694
 H          0.8727602405        0.1815218495       -0.9959570400
 C          0.9915027506        0.2986463806        0.0705834199
 C          0.2911593408       -0.5367567388        0.9296646008
 C          0.4317342309       -0.3480225274        2.2997899306
 C          1.2529177307        0.6500866633        2.7957127795
 C          1.9490552104        1.4809730026        1.9360467887
 C          1.8071558504        1.3051331512        0.5657378588
 N          2.5156107101        2.1457042605       -0.3214252620
 S          4.1855394301        2.0206880010       -0.2494219221
 O          4.6448097101        2.6024429823        0.9863501973
 O          4.6791869099        2.6274821999       -1.4644843827
 C          4.4986302705        0.2653705310       -0.2539511804
 C          4.5720356108       -0.4126066078        0.9463382603
 C          4.7289764811       -1.7889748378        0.9275664616
 C          4.8089704411       -2.4593253389       -0.2830991877
 C          4.7350108309       -1.7634788201       -1.4800604184
 C          4.5708605006       -0.3879308801       -1.4678522897
 H          4.5111848804        0.1905800990       -2.3760724203
 H          4.7987342509       -2.2870086610       -2.4206569479
 H          4.9328713214       -3.5309523389       -0.2936161767
 H          4.7855234813       -2.3336684968        1.8560872722
 H          4.5129853607        0.1457622031        1.8659294097
 H          2.2122860800        2.0364313495       -1.2794832219
 H          2.6023046303        2.2569381631        2.3015452478
 H          1.3514326708        0.7834710144        3.8623422194
 H         -0.1188163189       -0.9851743168        2.9767729413
 C         -0.5969368190       -1.6316602195        0.3893600519
 H         -0.9235527188       -2.2456072487        1.2391197726
 C          0.1524167911       -2.5184061303       -0.5859787973
 C          1.2083449014       -3.4411301795       -0.0582045664
 C         -0.0860702085       -3.9970787303       -0.5692654358
 H         -0.0869903485       -4.5279242012       -1.5094224853
 H         -0.7964009184       -4.3815232598        0.1480834847
 H          2.1012509814       -3.5872630599       -0.6455658964
 H          1.3767215315       -3.4461656584        1.0078037435
 H          0.3229561509       -2.0567667612       -1.5494900477
 O         -3.0585095588       -1.7360906287        1.7347258823
