  62
        -98.94443238
 C         -1.9450508213       -1.0834610328       -0.2135834964
 C         -2.4393525766        0.0792679523       -0.8517542485
 C         -3.8954412461        0.2733656429       -0.7839347710
 C         -4.6566061059       -0.6467084105       -0.1637579938
 C         -6.1419856141       -0.5450739057        0.0250030741
 C         -6.4863403375        0.1456673985        1.3520822984
 C         -5.7304753596        1.4545047620        1.5816334760
 H         -6.0751751785        1.8666213506        2.5324890478
 H         -4.6655419808        1.2376349521        1.6923080253
 C         -5.9195968922        2.4996265664        0.4733531634
 H         -6.1006546609        3.4720540899        0.9361196488
 H         -6.8008870731        2.2547768429       -0.1206424459
 C         -4.7143698366        2.6659051605       -0.4543075550
 H         -4.8678399595        3.5678203648       -1.0529827016
 H         -3.8102528635        2.8190128835        0.1407513782
 C         -4.4575861232        1.5090093201       -1.4282835980
 H         -5.3735751810        1.2777171633       -1.9758788386
 H         -3.7019862824        1.8414115422       -2.1463567477
 H         -7.5610005172        0.3353945178        1.3736253178
 H         -6.2451115034       -0.5369285118        2.1701642928
 H         -6.5577590363       -1.5540192229        0.0320926375
 H         -6.5717270445        0.0085495108       -0.8074396163
 O         -4.1463443248       -1.7644023942        0.4136748406
 C         -2.7821546960       -2.0044525966        0.4158727473
 O         -2.4433352256       -3.0520189736        1.0026539358
 O         -1.7069643314        0.9134341520       -1.4452453477
 C         -0.4535399235       -1.3697256852       -0.2118024788
 C          0.2906142966       -0.2012917444        0.3867628113
 C         -0.1109765874        0.2764574015        1.6325562826
 C          0.5195948916        1.3592208983        2.2120633111
 C          1.5763419181        1.9810070152        1.5692460110
 C          1.9923563082        1.5071554699        0.3318838886
 C          1.3546106822        0.4176919883       -0.2488012565
 H          1.6887999545        0.0863586882       -1.2170326375
 N          3.0537923746        2.1270822291       -0.3472637350
 S          4.2519194490        1.2057233122       -1.0599327390
 O          5.3385613827        2.1341701978       -1.2806692169
 O          3.7443735512        0.5304620015       -2.2259603522
 C          4.7045114266        0.0271058773        0.1992536653
 C          5.5271082907        0.4529177321        1.2242823996
 C          5.8339661074       -0.4278665779        2.2482072156
 C          5.3078649224       -1.7109799925        2.2346903820
 C          4.4850872668       -2.1231640500        1.1981437888
 C          4.1778120609       -1.2477613141        0.1682381620
 H          3.5460941436       -1.5336432619       -0.6563342182
 H          4.0787460622       -3.1220827700        1.1879786671
 H          5.5422337491       -2.3954845936        3.0346380279
 H          6.4781471399       -0.1125084991        3.0530781637
 H          5.9236059451        1.4548063955        1.1917951932
 H          3.4513905252        2.9186860816        0.1368996313
 H          2.0653275610        2.8334603132        2.0157222329
 H          0.1887778766        1.7232554193        3.1731591918
 H         -0.9379030948       -0.2091793031        2.1334391923
 H         -0.3133614115       -2.2407589230        0.4449576696
 C          0.0060866611       -1.7352908876       -1.6074367971
 C          1.1488435424       -2.6842628869       -1.8015761879
 C         -0.2498081650       -3.1204527822       -2.1173348289
 H         -0.5340109893       -3.2445117291       -3.1515254167
 H         -0.7337474643       -3.8138880118       -1.4447055447
 H          1.8332817841       -2.5075735827       -2.6184598535
 H          1.6089753925       -3.0961700487       -0.9158383071
 H         -0.1066883234       -0.9199803743       -2.3133602023
