  62
        -98.93803584
 C         -1.9706743388       -1.2788842521       -0.0472686888
 C         -2.4008664713       -0.2000495281       -0.8522455848
 C         -3.8182402145        0.2009517009       -0.7266255302
 C         -4.6126040077       -0.4728451187        0.1253695453
 C         -6.0627644299       -0.2247460592        0.4448200924
 C         -6.2664396207        0.9869196256        1.3686973297
 C         -5.4366881317        2.2164437192        1.0082712964
 H         -4.3779933421        1.9499022116        1.0136733303
 H         -5.5862215808        2.9604952743        1.7952232993
 C         -5.7891422505        2.8709600937       -0.3253955174
 H         -5.1851667901        3.7780808008       -0.4106015982
 H         -6.8390544410        3.1721445296       -0.3100688550
 C         -5.5460601990        2.0203712454       -1.5738903957
 H         -5.6056005124        2.6883623186       -2.4382970986
 H         -6.3307229574        1.2797326828       -1.7029274512
 C         -4.1754615573        1.3533133331       -1.6344686420
 H         -3.4003701465        2.1121956667       -1.4763285733
 H         -4.0130521913        0.9855377615       -2.6549913233
 H         -5.9927322985        0.6875771384        2.3833644103
 H         -7.3262486073        1.2471152683        1.3682987668
 H         -6.6338134962       -0.1136472048       -0.4720654533
 H         -6.4275560630       -1.1174150775        0.9577095050
 O         -4.1513878653       -1.5084408151        0.8837651840
 C         -2.8389682435       -1.9281954245        0.8320691476
 O         -2.5674214987       -2.8750274965        1.5974415592
 H          1.0495402692        0.0872651787       -1.3635998263
 C          1.0868358874        0.1852896884       -0.2905226294
 C          0.3456927492       -0.6722755773        0.5067577265
 C          0.3943840267       -0.5071274933        1.8881462023
 C          1.1651517055        0.4905200655        2.4551890576
 C          1.9010244848        1.3481962873        1.6555971310
 C          1.8509771088        1.1960663366        0.2771648946
 N          2.6127050352        2.0580631614       -0.5395352940
 S          4.2664821216        2.0196522388       -0.2699287654
 O          4.5752031198        2.7780830313        0.9158905137
 O          4.8748614265        2.4822848630       -1.4970129990
 C          4.6183450197        0.2918279205        0.0001059535
 C          4.8254379523       -0.1740097157        1.2822672976
 C          5.0076008807       -1.5336417310        1.4787023555
 C          4.9738210045       -2.3988176174        0.3963482069
 C          4.7669944364       -1.9146794058       -0.8863854838
 C          4.5826300232       -0.5569715326       -1.0884745517
 H          4.4250154390       -0.1430137387       -2.0715516513
 H          4.7429047031       -2.5909389850       -1.7257643234
 H          5.1098745310       -3.4575076917        0.5520827145
 H          5.1693220900       -1.9134996204        2.4746211233
 H          4.8440688394        0.5323224056        2.0957356172
 H          2.4149603666        1.9442537463       -1.5235887324
 H          2.5121209045        2.1306150752        2.0760808944
 H          1.1937433073        0.6033662883        3.5283473189
 H         -0.1882702547       -1.1717922660        2.5112430932
 C         -0.5280215412       -1.7575571788       -0.0721279057
 H         -0.4893581684       -2.6197038879        0.6068575723
 C         -0.1023912366       -2.2055011891       -1.4551145054
 C          1.1842460834       -2.9575528524       -1.6147371484
 C         -0.1251252611       -3.6642467188       -1.7932110243
 H         -0.4228567595       -3.9569299402       -2.7890502727
 H         -0.4471000870       -4.3502944188       -1.0235042532
 H          1.7557757407       -3.1589335708       -0.7213761847
 H          1.7867052558       -2.7668337960       -2.4895892452
 H         -0.3863220676       -1.5115323509       -2.2365716989
 O         -1.6481092283        0.4165758379       -1.6521862374
