  62
        -98.94088163
 C         -0.2502387296       -1.8208563326       -0.1412906758
 C         -1.3819669886       -1.8986785426        0.6985295956
 C         -2.5215844685       -1.0272686024        0.3586537200
 C         -2.4232054624       -0.2179847342       -0.7111531936
 C         -3.4479773796        0.7507341917       -1.2423117840
 C         -4.0566070225        1.7040846282       -0.2010832926
 C         -5.5378034250        1.4334095548        0.0651294860
 H         -5.9918408771        2.3402155294        0.4709357767
 H         -6.0282655051        1.2197639781       -0.8867812419
 C         -5.8207570004        0.2977392097        1.0470522541
 H         -5.5483483127        0.6189670143        2.0550789191
 H         -6.8989272724        0.1204240771        1.0433719983
 C         -5.1072151656       -1.0254911637        0.7572702391
 H         -5.6833199241       -1.8205461197        1.2358273430
 H         -5.1022361034       -1.2366850079       -0.3108298284
 C         -3.6793784021       -1.0958593719        1.3175684767
 H         -3.5415858983       -2.0460088331        1.8443109403
 H         -3.5367666129       -0.3167951579        2.0746322804
 H         -3.4876802293        1.6484443928        0.7278309153
 H         -3.9603729372        2.7248837967       -0.5756842263
 H         -2.9316938399        1.3204897328       -2.0164926018
 H         -4.2416992812        0.1896222672       -1.7395949755
 O         -1.3162430386       -0.1883528413       -1.5059364501
 C         -0.1948018840       -0.9498110972       -1.2284575374
 O          0.7595547310       -0.7678573800       -2.0061475962
 O         -1.4397016953       -2.6658359866        1.7001395663
 C          0.9809626938       -2.6369007882        0.1969965591
 C          2.1602891048       -1.7342025519        0.4694767318
 C          3.4714612070       -2.1115563357        0.2025085859
 C          4.5198108816       -1.2530681544        0.4838468553
 C          4.2869912723        0.0018881203        1.0166883179
 C          2.9791193561        0.3874716920        1.2883321580
 C          1.9350094843       -0.4856097391        1.0324697109
 H          0.9280103290       -0.1745070644        1.2671578257
 N          2.6906606442        1.6551789907        1.8193297985
 S          1.3178323704        2.4778811735        1.3555943950
 O          1.5791643530        3.8456390628        1.7590044547
 O          0.1418617824        1.8798698449        1.9403846495
 C          1.2098494843        2.4272797530       -0.4252641068
 C          2.3423044387        2.3019446182       -1.2032763314
 C          2.2149808990        2.3430147750       -2.5819906807
 C          0.9694863975        2.5283969139       -3.1579567266
 C         -0.1560450437        2.6669072169       -2.3631539009
 C         -0.0378559254        2.6110559647       -0.9847240094
 H         -0.8920528837        2.6914913770       -0.3302549840
 H         -1.1256695440        2.8097221919       -2.8133187023
 H          0.8732799041        2.5574731041       -4.2318710638
 H          3.0891436561        2.2249556163       -3.2017510245
 H          3.3058281187        2.1572543973       -0.7430698622
 H          3.4803802822        2.2768010163        1.9145907243
 H          5.1042124118        0.6762374632        1.2226573058
 H          5.5327797745       -1.5605774866        0.2739000310
 H          3.6710486340       -3.0792685314       -0.2277477315
 H          0.7350767204       -3.1681128869        1.1295666118
 C          1.2593574066       -3.6589059573       -0.8875392172
 C          1.8224519610       -5.0046260080       -0.5430504186
 C          0.3918200087       -4.8780564933       -0.9693582405
 H          0.1055371702       -5.2439788166       -1.9438247673
 H         -0.3780304072       -4.9866416271       -0.2190998932
 H          2.5199531537       -5.4623275118       -1.2283687105
 H          2.0203787641       -5.2147952451        0.4973442575
 H          1.5635423325       -3.1976673184       -1.8202431200
