  62
        -98.94245621
 C          1.2025282442        1.1503368406        0.2821783376
 C          1.9055024175        0.3725926898        1.2380632886
 C          2.6702882426       -0.7672131853        0.7167235482
 C          2.6232158503       -1.0400943183       -0.5994172572
 C          3.4209424675       -2.1125328953       -1.2822567979
 C          4.7754530160       -1.5712555360       -1.7625333596
 C          5.5482963568       -0.7966384900       -0.6950445364
 H          6.4976041025       -0.4897765300       -1.1394572671
 H          5.0008284663        0.1161481537       -0.4488149765
 C          5.8186158376       -1.5874758981        0.5926674279
 H          5.6919265660       -2.6544847723        0.4059811758
 H          6.8584948145       -1.4319432884        0.8877559372
 C          4.9513736867       -1.1751514911        1.7835827050
 H          5.0092775084       -0.0922554465        1.9213698191
 H          5.3644519088       -1.6402356378        2.6826752776
 C          3.4723018542       -1.5729942385        1.6991403909
 H          3.3912592917       -2.6394591495        1.4805181872
 H          3.0223699022       -1.3871048640        2.6787493332
 H          5.3786934932       -2.4112733886       -2.1117538217
 H          4.6011701190       -0.9036784516       -2.6095846252
 H          3.5749111813       -2.9411025684       -0.5935326650
 H          2.8596436349       -2.4657837406       -2.1488559538
 O          1.8702940125       -0.3278502052       -1.4713285988
 C          1.1310183226        0.7761390436       -1.0614211908
 O          0.4772763630        1.3039537766       -1.9773603897
 H         -1.4029638433        0.7124339767        1.7513038461
 C         -1.8143677233        1.3336601171        0.9648311639
 C         -0.9978314333        2.2776003378        0.3536297511
 C         -1.5326648569        3.0616586691       -0.6596159267
 C         -2.8480570012        2.8920893873       -1.0558814407
 C         -3.6593175960        1.9534500370       -0.4436068531
 C         -3.1356251881        1.1726514807        0.5779590096
 N         -3.9627709930        0.2142855705        1.2106586899
 S         -4.3618091375       -1.1226084576        0.2857217182
 O         -5.0752189687       -0.6827154779       -0.8844072573
 O         -5.0694555644       -2.0154992992        1.1747006535
 C         -2.7958064287       -1.8419106569       -0.1733886610
 C         -2.2536665403       -2.8224713433        0.6337979832
 C         -1.0104405081       -3.3420888760        0.3135442418
 C         -0.3334816640       -2.8707365969       -0.8008617529
 C         -0.8894562887       -1.8832319824       -1.5991262625
 C         -2.1305763713       -1.3558449978       -1.2805046131
 H         -2.5852283563       -0.5806682982       -1.8760665177
 H         -0.3563484980       -1.5046526844       -2.4568406466
 H          0.6356349992       -3.2740270546       -1.0487858244
 H         -0.5716120326       -4.1090161322        0.9313749612
 H         -2.8196501779       -3.1674306759        1.4844079820
 H         -3.5881678120       -0.1052422170        2.0937958669
 H         -4.6806457435        1.7991786729       -0.7515513312
 H         -3.2474129332        3.4990047787       -1.8542656201
 H         -0.9076389203        3.7845685772       -1.1575084900
 C          0.4396592154        2.3600991387        0.7944586606
 H          0.4631974416        2.2476158229        1.8909533686
 C          1.0879422499        3.7016186442        0.4887944554
 C          2.5800799497        3.8440085545        0.5070551702
 C          1.8287700865        3.9925067013       -0.7801636562
 H          1.7365387821        4.9813633634       -1.2054688824
 H          1.9024147397        3.2087591624       -1.5167235177
 H          3.0114849383        4.7237333001        0.9603271748
 H          3.1611066416        2.9453001952        0.6569502255
 H          0.5209141588        4.5237113030        0.9153802497
 O          1.8945333863        0.6226290901        2.4736183126
