  62
        -98.94143818
 C         -2.4343937628       -1.0359232814       -0.5589929118
 C         -3.4620644067       -0.5188156681        0.2743826346
 C         -3.9469475683        0.8269117553       -0.0442266407
 C         -3.4226214703        1.4916704749       -1.0893092447
 C         -3.8152307422        2.8677414953       -1.5534802010
 C         -3.1176104281        4.0024495908       -0.7906739870
 C         -3.6117303147        4.2240427134        0.6395138138
 H         -3.2034736156        5.1795844189        0.9745174253
 H         -4.6983115244        4.3158570036        0.6377351517
 C         -3.1869867772        3.1332221479        1.6329563006
 H         -2.3576489224        2.5579185276        1.2125835241
 H         -2.8142134841        3.5992740464        2.5481046389
 C         -4.3054140134        2.1723641896        2.0377981724
 H         -5.0752289048        2.7184766808        2.5874561570
 H         -3.8818224256        1.4196329415        2.7077097691
 C         -4.9690091152        1.4422480397        0.8629732748
 H         -5.6078458419        2.1274307397        0.3063560685
 H         -5.5851404827        0.6347082996        1.2657056678
 H         -3.2807524904        4.9233737609       -1.3553334307
 H         -2.0423992411        3.8063736177       -0.7772958847
 H         -3.5305878045        2.9342148536       -2.6057029765
 H         -4.8963227534        2.9864784733       -1.4764668655
 O         -2.4556463818        0.9569402062       -1.8779060276
 C         -1.9171168905       -0.2963242011       -1.6224716070
 O         -1.0124127265       -0.6123934892       -2.4227244419
 O         -3.9567378785       -1.1613858254        1.2384171326
 C         -1.8999429670       -2.4134307421       -0.1984369240
 C         -0.6273595293       -2.2694303169        0.6022154024
 C         -0.5883456475       -2.6046797748        1.9504713891
 C          0.5664727839       -2.4185334364        2.6908309966
 C          1.7030685473       -1.8898542630        2.1053242409
 C          1.6696960926       -1.5442385431        0.7610384395
 C          0.5174522096       -1.7464927725        0.0172149127
 H          0.4953119989       -1.4580335556       -1.0235638177
 N          2.8198422143       -0.9783013802        0.1541022629
 S          3.1726077153        0.5942749073        0.6724725346
 O          3.3291945138        0.5789221656        2.1043402187
 O          2.1958764693        1.5278282432        0.1486540235
 C          4.7533630119        0.8530229759       -0.1073442617
 C          4.8198470362        1.5480721126       -1.2990175994
 C          6.0527305340        1.7125295309       -1.9110724008
 C          7.1903052412        1.1779205014       -1.3256907582
 C          7.1068585490        0.4811757252       -0.1292329054
 C          5.8777702302        0.3147168642        0.4882612172
 H          5.7652221153       -0.2113009477        1.4215197242
 H          7.9940593253        0.0682656887        0.3229205486
 H          8.1479249566        1.3070711144       -1.8047722552
 H          6.1198806417        2.2554298132       -2.8401903245
 H          3.9101920041        1.9522041995       -1.7144773140
 H          2.6973808568       -0.9347209335       -0.8510842609
 H          2.5994431606       -1.7157061905        2.6768103456
 H          0.5801056143       -2.6824010720        3.7375498280
 H         -1.4795675274       -2.9927807910        2.4222445686
 H         -2.6613053877       -2.8513430867        0.4610100536
 C         -1.7133499759       -3.3301155391       -1.3903243028
 C         -1.6528473158       -4.8098563826       -1.1624088725
 C         -2.8500861787       -4.2021413132       -1.8279627913
 H         -2.9944274186       -4.3657126219       -2.8852977080
 H         -3.7709345943       -4.1419060898       -1.2663836265
 H         -0.9727724955       -5.3951325453       -1.7617674083
 H         -1.7621511889       -5.1632820579       -0.1483329535
 H         -1.0840363749       -2.9122318606       -2.1648614846
