  62
        -98.94228739
 C         -1.0442662585       -1.3748720741        0.8649200120
 C         -2.0676518645       -1.1223725340       -0.0758919890
 C         -2.8379119849        0.1231301387        0.1032114206
 C         -2.4715874537        0.9941751769        1.0606666348
 C         -3.0442982559        2.3348105383        1.4729705693
 C         -4.1260077434        3.0105288130        0.6365154945
 C         -3.6427565252        3.5489223301       -0.7106303502
 H         -4.5132241813        3.8888684923       -1.2765193622
 H         -3.0054938511        4.4179462306       -0.5270294159
 C         -2.8428693334        2.5743790967       -1.5721731004
 H         -2.5370079593        3.1050679678       -2.4789043191
 H         -1.9226085113        2.2803396456       -1.0623150079
 C         -3.5915857757        1.3165256726       -2.0054995150
 H         -4.5064713712        1.5946418045       -2.5340648132
 H         -2.9463104873        0.7798989249       -2.7067733444
 C         -3.9566576230        0.3424525773       -0.8748650250
 H         -4.8609135941        0.6592676487       -0.3602395843
 H         -4.1596644448       -0.6327271793       -1.3280209889
 H         -4.4861309471        3.8627129321        1.2195488275
 H         -4.9706041800        2.3408571210        0.5037323911
 H         -3.4280652357        2.1914674219        2.4892892457
 H         -2.1880924561        3.0123484721        1.5592873578
 O         -1.4343867148        0.7330951471        1.9104647306
 C         -0.7035169939       -0.4386001757        1.8382810107
 O          0.2114166550       -0.5266672237        2.6826442511
 H          1.3225976508       -0.5325163030        0.0954519298
 C          1.3290706950       -1.2583606287       -0.7046038325
 C          0.6335034167       -2.4503101052       -0.5410710428
 C          0.6702818364       -3.3868741993       -1.5640894331
 C          1.3552057930       -3.1089373880       -2.7357958089
 C          1.9914512542       -1.8949561064       -2.9189094002
 C          1.9737595661       -0.9578535340       -1.8908920845
 N          2.6039441864        0.2882185552       -2.0209149322
 S          1.9500618484        1.6272038835       -1.2548909051
 O          0.5092346390        1.5693680193       -1.1824503551
 O          2.4984623330        2.7533722339       -1.9847469666
 C          2.6686666672        1.6057602035        0.3723912588
 C          3.9977960859        1.2566079730        0.5089237226
 C          4.5659957469        1.2727322464        1.7720289537
 C          3.8022698039        1.6400217927        2.8698888033
 C          2.4719605947        1.9952817635        2.7150840574
 C          1.8984351475        1.9807097401        1.4540071689
 H          0.8604255237        2.2304034295        1.2968348747
 H          1.8714417474        2.2690565815        3.5674351821
 H          4.2438588091        1.6469571095        3.8539714281
 H          5.6004016381        0.9959711445        1.8980575702
 H          4.5580673238        0.9734753678       -0.3664266243
 H          2.9491515121        0.5055224491       -2.9442604287
 H          2.4923154011       -1.6682468814       -3.8477458979
 H          1.3725321834       -3.8409752616       -3.5290383911
 H          0.1494382837       -4.3237299653       -1.4541201875
 C         -0.1583844301       -2.6043112334        0.7356365838
 H          0.5432946783       -2.5618756090        1.5812939330
 C         -0.9568400297       -3.8854505554        0.8205544351
 C         -0.2874523357       -5.1541396703        1.2541618828
 C         -1.2550788256       -4.4668763456        2.1687472222
 H         -2.2223511602       -4.9176247176        2.3322648944
 H         -0.8645738058       -3.9471719043        3.0316922534
 H         -0.5909473920       -6.0813538301        0.7922738179
 H          0.7625667450       -5.1058021903        1.4998201578
 H         -1.7336815107       -3.9455371042        0.0679096463
 O         -2.3474105031       -1.9048411931       -1.0224280593
