  62
        -98.93709555
 C         -1.7062026186       -1.3349383805        0.0418926102
 C         -3.0137486686       -1.1835211813        0.5698026403
 C         -3.8592625093       -0.1134903917        0.0056436705
 C         -3.3373032698        0.6883694087       -0.9404278094
 C         -3.9772525205        1.8626292384       -1.6328507292
 C         -4.0542075412        3.1130872182       -0.7431616690
 C         -4.5269201210        2.8566311378        0.6850229210
 H         -3.8542164105        2.1425392681        1.1632316908
 H         -4.4456605315        3.7975658377        1.2354329011
 C         -5.9661781907        2.3635837569        0.8142100010
 H         -6.6377692711        3.0897541766        0.3507857811
 H         -6.2020393306        2.3281326166        1.8809174810
 C         -6.2563334899        0.9829639168        0.2205879508
 H         -6.3633534600        1.0318656969       -0.8599243992
 H         -7.2244414397        0.6572662662        0.6123210408
 C         -5.2469027293       -0.0958319126        0.5998577006
 H         -5.1133544592       -0.0973718127        1.6877065406
 H         -5.6792171187       -1.0760082328        0.3638742905
 H         -3.0559122114        3.5537313188       -0.6895877890
 H         -4.7156703616        3.8359946079       -1.2237553689
 H         -3.3547868907        2.0912130089       -2.5010378192
 H         -4.9626936204        1.5881152779       -1.9978226492
 O         -2.0610240297        0.5345767095       -1.3896258095
 C         -1.2206467691       -0.4729005701       -0.9422691997
 O         -0.1091089092       -0.4719428494       -1.5027382297
 O         -3.4696241682       -1.9186621817        1.4862827303
 C         -0.8473381879       -2.4408947101        0.6328713501
 C          0.4897712218       -1.8832323594        1.0439723801
 C          0.6311628815       -1.2481904395        2.2738871401
 C          1.8365343612       -0.6767721488        2.6390394102
 C          2.9143027611       -0.6964341481        1.7710116401
 C          2.7716695114       -1.3044217680        0.5304855700
 C          1.5774006418       -1.9227320386        0.1865770800
 H          1.4795309520       -2.3934514686       -0.7788702000
 N          3.8334243314       -1.2708125973       -0.3882957000
 S          4.7234915505        0.1390086833       -0.5082168199
 O          5.1811112705        0.1850767937       -1.8804000599
 O          5.7683468706        0.1243988837        0.4884738001
 C          3.6256117498        1.5106692026       -0.1746120696
 C          2.3605137697        1.5387426419       -0.7260765695
 C          1.5424654691        2.6259149314       -0.4603415294
 C          1.9986097186        3.6651660616        0.3346615008
 C          3.2753558086        3.6252572722        0.8736498907
 C          4.0957468192        2.5384880127        0.6197687605
 H          5.0898920093        2.4598407033        1.0294240905
 H          3.6309419082        4.4330953524        1.4928376108
 H          1.3548011881        4.5068048012        0.5366218309
 H          0.5468003491        2.6392162409       -0.8758440393
 H          1.9935053402        0.7232762718       -1.3291809296
 H          3.5829376515       -1.6165522873       -1.3033758600
 H          3.8581537809       -0.2454501476        2.0329336801
 H          1.9367115709       -0.2000864989        3.6020816202
 H         -0.2186386185       -1.2025979501        2.9404789702
 H         -1.3879274177       -2.7473703605        1.5423304000
 C         -0.7208040872       -3.6841418399       -0.2359784601
 C         -1.9190044670       -4.2324804005       -0.9501086201
 C         -0.7791425173       -3.6561127197       -1.7326267301
 H         -0.1391481970       -4.3343286093       -2.2786128602
 H         -0.9181372679       -2.7041419597       -2.2203420800
 H         -2.0694221064       -5.3013209906       -0.9652613803
 H         -2.8345062673       -3.6621453010       -0.8890723600
 H         -0.0470748768       -4.4121668096        0.2062693597
