  62
        -98.93926542
 C          1.5454276064        1.0346461603        0.2808523175
 C          2.8589925754        1.2295963066        0.7701499794
 C          3.9612040811        0.7838288706       -0.0989569699
 C          3.6683519776        0.2178839221       -1.2825916546
 C          4.6308525527       -0.3586781931       -2.2837701936
 C          4.8097871502       -1.8693231952       -2.0562254212
 C          5.8936129938       -2.2447938287       -1.0462528053
 H          5.8254301082       -3.3228959371       -0.8831484223
 H          6.8744726260       -2.0407752906       -1.4808416010
 C          5.8014750616       -1.5358073367        0.3075805812
 H          4.7615124404       -1.5106714210        0.6389012327
 H          6.3571505623       -2.1309057377        1.0349633551
 C          6.3797459136       -0.1129758010        0.2843903937
 H          6.9459959506        0.0253411267       -0.6364587778
 H          7.0910950300        0.0007415677        1.1049835423
 C          5.3495402809        1.0168436288        0.4317623258
 H          5.2050900798        1.2406034416        1.4933586053
 H          5.7502546372        1.9266678292       -0.0272946921
 H          5.0583271437       -2.3406392708       -3.0093942294
 H          3.8473570504       -2.2757504456       -1.7333723366
 H          5.5839533694        0.1604545399       -2.2466265895
 H          4.1841833254       -0.2066069306       -3.2685456618
 O          2.3897727139        0.0448961498       -1.7155739430
 C          1.2996413257        0.4359657611       -0.9549701761
 O          0.1992724914        0.2117607222       -1.4925244493
 O          3.1023468925        1.7503835690        1.8924178233
 C          0.3801337686        1.4520577509        1.1634486112
 C         -0.2898193992        0.2040372333        1.6849085972
 C          0.3891017008       -0.5876550294        2.6088750011
 C         -0.1784942191       -1.7502180282        3.0921271883
 C         -1.4272269223       -2.1568162454        2.6519345449
 C         -2.1095291829       -1.3791750858        1.7259963275
 C         -1.5452415768       -0.1986517624        1.2607459438
 H         -2.0905826442        0.3986597280        0.5527934768
 N         -3.3864207142       -1.7470463381        1.2638446589
 S         -3.6256460199       -1.8417806802       -0.4006078803
 O         -4.8123179539       -2.6626568561       -0.5376611573
 O         -2.4438470408       -2.3285935558       -1.0721742724
 C         -4.0245042509       -0.1802008721       -0.8963775657
 C         -3.1690616441        0.5226521329       -1.7218680245
 C         -3.5105315109        1.8173410739       -2.0832233153
 C         -4.6890402358        2.3804081448       -1.6179899359
 C         -5.5375195921        1.6572733349       -0.7927299607
 C         -5.2052873837        0.3626946431       -0.4282427730
 H         -5.8374314873       -0.2377881645        0.2043655463
 H         -6.4523481077        2.0992823354       -0.4323544278
 H         -4.9449570648        3.3897176361       -1.9002660119
 H         -2.8464083626        2.3797085040       -2.7207915140
 H         -2.2435271453        0.0653290448       -2.0377971298
 H         -3.7603333870       -2.5734494342        1.7100367488
 H         -1.8682739157       -3.0708798872        3.0209031051
 H          0.3564810028       -2.3515201631        3.8120022772
 H          1.3701864312       -0.2763887139        2.9404901239
 H          0.8374315970        1.9704128930        2.0181489050
 C         -0.5602228033        2.4033990944        0.4560059267
 C         -1.5566150251        3.1889127360        1.2537133300
 C         -0.3834749064        3.8807793707        0.6288604408
 H         -0.5542503623        4.5217969030       -0.2227323681
 H          0.4154720447        4.2165813747        1.2737182135
 H         -2.5368345859        3.3519329373        0.8320466715
 H         -1.5534384517        3.0538548797        2.3246254576
 H         -0.8617866419        2.0526741496       -0.5230945031
