  62
        -98.94395585
 C          1.7087723081        1.4513349904        0.5085736107
 C          2.5816602550        0.9776082266       -0.5018177557
 C          3.4400668622       -0.1573691284       -0.1236133839
 C          3.3064425516       -0.7178704282        1.0914200835
 C          4.0914898498       -1.8976079821        1.5864581062
 C          3.3870816511       -3.2233733538        1.2672817954
 C          2.9260169093       -3.3425705250       -0.1848988002
 H          2.4670214359       -4.3271404215       -0.2975959092
 H          2.1535072361       -2.5948029870       -0.3755953641
 C          4.0439864421       -3.1783565417       -1.2233305951
 H          5.0165051374       -3.3162362726       -0.7492911722
 H          3.9392076849       -3.9594418238       -1.9791608924
 C          4.0243490376       -1.8381465581       -1.9603533212
 H          3.0232797489       -1.6503708214       -2.3561736137
 H          4.7055864753       -1.9086133554       -2.8124709520
 C          4.4525142414       -0.6184802354       -1.1347473551
 H          5.4111336846       -0.8198574049       -0.6518128259
 H          4.5860867788        0.2181345985       -1.8266272119
 H          4.0701556407       -4.0412426723        1.5037278718
 H          2.5127058389       -3.3173880081        1.9157871129
 H          5.0796838357       -1.8823984314        1.1303585227
 H          4.2014182573       -1.8057812774        2.6685128394
 O          2.3967345097       -0.2889288632        2.0043241413
 C          1.5886137413        0.8020289729        1.7406385435
 O          0.8092741286        1.0964576863        2.6704188404
 H         -1.5084277959        1.9862952765        1.4907744323
 C         -1.5671176308        1.8399178788        0.4203886214
 C         -0.4681680334        2.1564835171       -0.3663106116
 C         -0.5391877357        1.9268696814       -1.7357171314
 C         -1.6903682936        1.4024740954       -2.2968569066
 C         -2.7848340241        1.0872765380       -1.5100085426
 C         -2.7159952360        1.3013128508       -0.1397172796
 N         -3.8062302599        0.9454385631        0.6765945260
 S         -4.4303172648       -0.5912385424        0.4508835327
 O         -5.3803612470       -0.5685049107       -0.6333231230
 O         -4.9584835481       -0.9864271410        1.7377983231
 C         -3.0381412813       -1.6147716381       -0.0000820639
 C         -1.9275132661       -1.6239865388        0.8207477479
 C         -0.8395745878       -2.4043611128        0.4661659167
 C         -0.8812874502       -3.1641487674       -0.6927719449
 C         -2.0052998025       -3.1479400865       -1.5034815590
 C         -3.0937790140       -2.3634598128       -1.1579830920
 H         -3.9839682450       -2.3130854744       -1.7636658634
 H         -2.0337594254       -3.7399622155       -2.4039142439
 H         -0.0313851837       -3.7701256176       -0.9639979931
 H          0.0369536184       -2.4059700805        1.0957522136
 H         -1.9108754633       -1.0271847475        1.7194071437
 H         -3.6475405165        1.1242153365        1.6579492733
 H         -3.6857584352        0.6718767559       -1.9322384020
 H         -1.7348714000        1.2295067726       -3.3612414770
 H          0.3223647709        2.1337033424       -2.3504069443
 C          0.7875553730        2.6479058381        0.3109971601
 H          0.5101916764        2.9777286498        1.3214978563
 C          1.4368476301        3.8122833346       -0.4052848350
 C          0.7907713190        5.1610150830       -0.3158370602
 C          2.0797721836        4.8980850233        0.4018775886
 H          2.9837243441        5.3525821247        0.0251556597
 H          2.0549918175        4.8066671909        1.4783591626
 H         -0.1096009952        5.2463462137        0.2741981514
 H          0.8068823633        5.7988127562       -1.1860840511
 H          1.9160237844        3.5432145203       -1.3361483221
 O          2.6675334605        1.4659903614       -1.6575352988
