  62
        -98.94093255
 C         -2.3478995211       -0.5994408508       -0.2165655399
 C         -3.5979219311       -1.0206374107        0.2984802701
 C         -4.5337317411        0.0478425595        0.6707973798
 C         -4.1498284610        1.3312365994        0.5427981095
 C         -5.0212232110        2.5179723295        0.8336879592
 C         -5.7865870809        2.9656604693       -0.4197586710
 C         -6.4986153709        1.8266343991       -1.1496291707
 H         -7.0267516508        2.2652934190       -1.9989889709
 H         -5.7510473309        1.1410738190       -1.5551390105
 C         -7.4904024310        1.0385530094       -0.2826685106
 H         -7.7489093910        1.6179944896        0.6043280292
 H         -8.4104404210        0.8883492693       -0.8514098407
 C         -6.9988274511       -0.3461742605        0.1426447197
 H         -6.6525237211       -0.8976089508       -0.7350594801
 H         -7.8470781411       -0.8949647004        0.5602821998
 C         -5.8816675812       -0.3629381404        1.1935760998
 H         -5.7664491512       -1.3942606603        1.5397939000
 H         -6.1690392012        0.2549957498        2.0467021096
 H         -5.0772333308        3.4252912191       -1.1118526010
 H         -6.5148073909        3.7239123194       -0.1262922012
 H         -5.7206452511        2.2627558697        1.6274709492
 H         -4.3844710810        3.3370015096        1.1724515590
 O         -2.9262152110        1.6969390692        0.0822378795
 C         -1.9967731610        0.7467102991       -0.3158374702
 O         -0.9242493810        1.2239965290       -0.7337876303
 O         -3.9145884212       -2.2323362206        0.4395341303
 C         -1.3395746411       -1.6568191010       -0.6324971997
 C         -0.1327368012       -1.5576314309        0.2671874504
 C         -0.2951377213       -1.8242047905        1.6248102405
 C          0.7675210887       -1.7075349804        2.4988322405
 C          2.0169624787       -1.3247270706        2.0407280805
 C          2.1886961688       -1.0529104909        0.6911447504
 C          1.1175873589       -1.1749785910       -0.1876449396
 H          1.2635518590       -0.9499607213       -1.2323534496
 N          3.4575472789       -0.6896416710        0.1988567504
 S          4.3862419489        0.4070250591        1.0852352002
 O          4.9255410388       -0.2737779807        2.2360913904
 O          3.6317187689        1.6100595292        1.3602342199
 C          5.6901237590        0.7368398988       -0.0835268898
 C          6.7765879589       -0.1159966113       -0.1268873095
 C          7.7764435890        0.1202705585       -1.0568158895
 C          7.6732795591        1.1982987183       -1.9233572197
 C          6.5770740692        2.0460237383       -1.8672969300
 C          5.5728093591        1.8147836986       -0.9403116200
 H          4.7070041891        2.4526565887       -0.8560292002
 H          6.5003448792        2.8847697982       -2.5404476402
 H          8.4527064292        1.3811102281       -2.6461182797
 H          8.6311918890       -0.5350357516       -1.1025957993
 H          6.8166249789       -0.9350645811        0.5717900207
 H          3.4063681690       -0.3917515413       -0.7665922596
 H          2.8513672187       -1.2199371104        2.7147019705
 H          0.6259370886       -1.9140972302        3.5493376305
 H         -1.2725528313       -2.1154094904        1.9851396205
 H         -1.8311980212       -2.6201251809       -0.4357318895
 C         -1.0265167110       -1.5610442013       -2.1100816997
 C         -0.4402220110       -2.7406543615       -2.8249576294
 C         -1.8604011110       -2.3381590315       -3.0824357195
 H         -2.1049560409       -1.8821564317       -4.0301200796
 H         -2.6497465010       -2.9552789814       -2.6789769994
 H          0.2905589890       -2.5646573217       -3.5996086793
 H         -0.2631350011       -3.6344267814       -2.2463381191
 H         -0.7092186709       -0.5690197614       -2.4106838799
