  62
        -98.93746815
 C          1.7546270757        0.9331279086        0.3634509355
 C          2.4261078002        0.3354050356       -0.7298029335
 C          3.5381178409       -0.5664254729       -0.3870369238
 C          3.8180834433       -0.8041007753        0.9071686226
 C          4.9626469016       -1.6348115519        1.4140410794
 C          6.2764151662       -0.8325600477        1.3218256945
 C          7.2951675775       -1.4007049591        0.3334605358
 H          8.0715584073       -0.6453855096        0.1944627370
 H          7.7671660570       -2.2801832659        0.7765496575
 C          6.7437379068       -1.8067116212       -1.0367964352
 H          6.2615572599       -2.7827690084       -0.9641301087
 H          7.6023187591       -1.9331237787       -1.6997747689
 C          5.7620706535       -0.8217854016       -1.6848121254
 H          5.9176363458        0.1859552386       -1.2990781833
 H          5.9719270343       -0.7882637661       -2.7557673980
 C          4.2775319165       -1.2025070169       -1.5311541319
 H          3.7375937761       -0.8784761458       -2.4259964305
 H          4.1832025706       -2.2903179788       -1.4688620567
 H          6.7446508478       -0.7876024868        2.3062538885
 H          6.0312344526        0.1945375238        1.0435652899
 H          4.7452872217       -1.8896903393        2.4516316419
 H          5.0336253470       -2.5543514545        0.8371883008
 O          3.1182152454       -0.2455861322        1.9295405086
 C          2.0732815198        0.6312872608        1.6863634331
 O          1.5083669357        1.0579462916        2.7146688952
 H         -0.4478896825       -0.4452081051        0.7848864722
 C         -0.9356515192       -0.0461133743       -0.0964569040
 C         -0.5127672603        1.1761490630       -0.6058853384
 C         -1.1581769227        1.6849008624       -1.7244860849
 C         -2.1772835030        0.9701964861       -2.3319066784
 C         -2.5813604440       -0.2541455242       -1.8341802726
 C         -1.9546091191       -0.7629577462       -0.7029030391
 N         -2.3769714396       -1.9948604991       -0.1724103698
 S         -4.0265894892       -2.2210026883        0.0096339893
 O         -4.1664542783       -3.1344609285        1.1223569243
 O         -4.5943580157       -2.6628818661       -1.2397646814
 C         -4.6744534472       -0.6123852575        0.4305927516
 C         -5.6083129862       -0.0088780725       -0.3865734887
 C         -6.0690941887        1.2559514889       -0.0573863463
 C         -5.5864000727        1.8937217734        1.0746004595
 C         -4.6507394592        1.2724314481        1.8879056770
 C         -4.1889051460        0.0069582890        1.5653761930
 H         -3.4635744257       -0.5022265842        2.1802982956
 H         -4.2744467829        1.7690063649        2.7680754583
 H         -5.9402218307        2.8807913900        1.3271177392
 H         -6.7980853176        1.7407508482       -0.6863735007
 H         -5.9521231422       -0.5389634530       -1.2597498035
 H         -1.8776386397       -2.2734573375        0.6592392674
 H         -3.3633282971       -0.8288478404       -2.3034938167
 H         -2.6617336949        1.3720955172       -3.2084047775
 H         -0.8576048949        2.6370307210       -2.1287725339
 C          0.6045481144        1.8927246095        0.1141951092
 H          0.2324101745        2.1824130761        1.1078834441
 C          1.0953215308        3.1323364657       -0.6032038320
 C          0.3866238788        4.4396482527       -0.4195214636
 C          1.7350828934        4.2250913805        0.1975713342
 H          2.5852760817        4.7418446229       -0.2218315186
 H          1.7944685340        4.0867134709        1.2676446521
 H          0.3125684356        5.1089510948       -1.2632431653
 H         -0.4719703038        4.4556371102        0.2343655730
 H          1.5208198145        2.9098918708       -1.5746680915
 O          2.1146427688        0.5413373290       -1.9312733581
