  62
        -98.94727999
 C         -2.2784318402       -0.7550114393        0.2204504398
 C         -1.5892782099       -0.0486929292       -0.7950330799
 C         -1.8742110692        1.3899059209       -0.8834411194
 C         -2.6765742590        1.9698471209        0.0265205108
 C         -3.0984798384        3.4139408211        0.0520051113
 C         -2.0758347180        4.3547113404        0.7022084217
 C         -0.8412821678        4.6557760702       -0.1475492381
 H         -1.1550452477        4.9734308907       -1.1428622380
 H         -0.3300735675        5.5000143998        0.3194699722
 C          0.1487723417        3.4890522598       -0.2661022985
 H          1.1672033918        3.8608718193       -0.1240997983
 H         -0.0277150387        2.7637431896        0.5320543112
 C          0.1220020314        2.7611185203       -1.6091654388
 H          0.4385699617        3.4437650205       -2.4016891685
 H          0.8463275410        1.9454162300       -1.5568404290
 C         -1.2408522288        2.1722807411       -1.9959668090
 H         -1.0877972691        1.4874705113       -2.8340517993
 H         -1.9122519485        2.9699244315       -2.3160346088
 H         -2.5866288176        5.2977422606        0.9115433421
 H         -1.7623798382        3.9257901799        1.6571911416
 H         -4.0227267284        3.4547301813        0.6328167313
 H         -3.3106998182        3.7519544916       -0.9630738785
 O         -3.2396874694        1.2750094508        1.0511218005
 C         -3.0518520300       -0.0910876093        1.1749501900
 O         -3.6217373302       -0.5971463494        2.1641829698
 O         -0.7933720201       -0.5848109493       -1.6091144601
 C         -2.1200233009       -2.2559419794        0.4023942892
 C         -0.6586284610       -2.6250978600        0.3350526692
 C         -0.1346474414       -3.6049761700       -0.4980093912
 C          1.2243279185       -3.8706999605       -0.4977264112
 C          2.0889361887       -3.1490045312        0.3046134891
 C          1.5734785191       -2.1618773213        1.1371625094
 C          0.2086272292       -1.9332444407        1.1718933095
 H         -0.1805081005       -1.1669639308        1.8272337297
 N          2.4107856795       -1.3621052820        1.9444515698
 S          2.4429581702        0.2778794681        1.5907903004
 O          3.3880774104        0.8475803174        2.5278960006
 O          1.1072580604        0.8128197387        1.6301083305
 C          3.1332041503        0.3592839485       -0.0534181496
 C          4.4429219705        0.7770998679       -0.1963228693
 C          5.0155415005        0.7810503482       -1.4575245393
 C          4.2753619504        0.3566842689       -2.5510762195
 C          2.9651519202       -0.0648681006       -2.3903019097
 C          2.3816603901       -0.0660056408       -1.1313300697
 H          1.3591966300       -0.3840541504       -0.9953848499
 H          2.3799569301       -0.3948920200       -3.2336449799
 H          4.7205882704        0.3544789091       -3.5335123595
 H          6.0343391707        1.1107990778       -1.5825787291
 H          4.9787566606        1.0949034274        0.6835319008
 H          3.3609758293       -1.7029020624        2.0056078097
 H          3.1518525787       -3.3376074317        0.2837175591
 H          1.6178268582       -4.6364491605       -1.1485987315
 H         -0.7857507616       -4.1482843494       -1.1627570714
 H         -2.4624881210       -2.4505269497        1.4328936092
 C         -3.0020487812       -3.0924771587       -0.5131477011
 C         -4.2751816609       -2.5386627679       -1.0783683309
 C         -3.1152200610       -2.8223702681       -1.9823863110
 H         -3.1864717914       -3.6654147278       -2.6540105713
 H         -2.5565857006       -1.9904337382       -2.3796921907
 H         -5.1384269812       -3.1856337175       -1.1247210212
 H         -4.5141557105       -1.5081015379       -0.8573905706
 H         -3.0319268417       -4.1328987688       -0.2042761715
