  62
        -98.93885792
 C         -2.0010730011       -1.3525455236       -0.0107111918
 C         -2.6186297058       -0.7623788827        1.1149255696
 C         -3.7924827993        0.0871785921        0.8496543544
 C         -4.1978303325        0.2604137338       -0.4205856020
 C         -5.3237770674        1.1295632629       -0.9082823544
 C         -4.8012296022        2.5203304887       -1.3069184096
 C         -4.7304969109        3.5343504043       -0.1655078302
 H         -4.2233720835        4.4221445149       -0.5506919857
 H         -5.7435137008        3.8316637206        0.1136100203
 C         -3.9981782663        3.0567617122        1.0914126717
 H         -3.6895283714        3.9398857175        1.6545536478
 H         -3.0894360080        2.5229111836        0.8062293174
 C         -4.8664694604        2.1690525783        1.9957109387
 H         -4.8300556260        2.5511547306        3.0179970233
 H         -5.9051364530        2.2447240327        1.6745954904
 C         -4.4523682713        0.6907653207        2.0595167600
 H         -3.7276634490        0.5509854668        2.8678826406
 H         -5.3282345004        0.0863764434        2.3174559976
 H         -5.4511507103        2.9303488382       -2.0825488275
 H         -3.8090741998        2.3918165185       -1.7480404884
 H         -5.7299061395        0.6434323645       -1.7976850779
 H         -6.1071213176        1.2031760683       -0.1597987630
 O         -3.5662764758       -0.3177727075       -1.4788686673
 C         -2.4550328450       -1.1271170402       -1.3101939480
 O         -1.9763635532       -1.5728940671       -2.3691789851
 H          0.0112487377        0.2978730526        0.3310885913
 C          0.6724885763       -0.2767392558       -0.3059328028
 C          0.4144719261       -1.6285948357       -0.5017712449
 C          1.2819792178       -2.3564654399       -1.3048193055
 C          2.3544354060       -1.7348818558       -1.9223964777
 C          2.5916887454       -0.3847740045       -1.7464152736
 C          1.7431640780        0.3484018932       -0.9254272551
 N          1.9829713901        1.7174483688       -0.7236324056
 S          3.5571552144        2.2164823446       -0.4571291453
 O          3.4407041526        3.4352941097        0.3123651954
 O          4.2504592282        2.3321941615       -1.7158470335
 C          4.2992014215        0.9241510534        0.5240157243
 C          5.3907008517        0.2315014772        0.0414643942
 C          5.9300931964       -0.7884661892        0.8090527614
 C          5.3685738346       -1.0988696988        2.0376260791
 C          4.2740348631       -0.3909540443        2.5106194973
 C          3.7321572562        0.6309778317        1.7485513141
 H          2.8840650797        1.2023611687        2.0911266077
 H          3.8380054612       -0.6327964880        3.4666775778
 H          5.7852707925       -1.8964115285        2.6321782504
 H          6.7823945485       -1.3390345737        0.4450163039
 H          5.7935342558        0.5039454706       -0.9203766291
 H          1.3407823224        2.1602236961       -0.0838110268
 H          3.4088396406        0.1166236902       -2.2389510488
 H          3.0123914904       -2.3103303114       -2.5552638402
 H          1.1129863162       -3.4092875457       -1.4581470023
 C         -0.7810073478       -2.2316339285        0.1947472111
 H         -0.5887920027       -2.2138254387        1.2779850819
 C         -1.0756166098       -3.6565295349       -0.2230793418
 C         -0.3682777291       -4.7995891075        0.4396587712
 C         -1.8173285626       -4.5481138643        0.7258243355
 H         -2.5514551386       -5.2305536610        0.3245275500
 H         -2.0872270800       -4.1343760569        1.6866407199
 H          0.3476866472       -4.5639924073        1.2122217758
 H         -0.1077657814       -5.6605632893       -0.1571493506
 H         -1.3148944154       -3.7399745378       -1.2771717784
 O         -2.1979136439       -0.9254142871        2.2933066301
