  62
        -98.94939287
 C         -0.4525780800       -1.8392900151       -0.1289672571
 C         -1.6283526390       -1.9423789046        0.6493903363
 C         -2.7751110453       -1.1553800544        0.1835893356
 C         -2.6571278960       -0.3925439075       -0.9187592931
 C         -3.7616673427        0.4032539510       -1.5627462078
 C         -4.0116830691        1.7850585226       -0.9446643400
 C         -4.6571441952        1.7760432300        0.4409702416
 H         -4.9608258617        2.8019084491        0.6596574641
 H         -5.5614696260        1.1668580669        0.4176434154
 C         -3.7364975126        1.2859353219        1.5677060610
 H         -2.6929165963        1.3178923269        1.2428010482
 H         -3.8127467640        1.9623041764        2.4227183624
 C         -4.0545412913       -0.1207243011        2.0752301705
 H         -5.0371869893       -0.1236140006        2.5532162431
 H         -3.3109338318       -0.3846082347        2.8320722940
 C         -4.0371703215       -1.2049269671        0.9902724229
 H         -4.0780820585       -2.1804217193        1.4817175064
 H         -4.9087733302       -1.1022197274        0.3435660018
 H         -4.6715763323        2.3299564091       -1.6240784629
 H         -3.0657736939        2.3276332439       -0.8946125428
 H         -4.6854754416       -0.1761580307       -1.5334336500
 H         -3.4732005396        0.5407318133       -2.6070581425
 O         -1.4989261128       -0.2980218875       -1.6239458750
 C         -0.3658264764       -1.0027669533       -1.2418687130
 O          0.6286018783       -0.8108052952       -1.9651687164
 O         -1.7213694572       -2.6734514593        1.6738734767
 C          0.7640876323       -2.6540727121        0.2618114084
 C          1.9721689240       -1.7790446576        0.4865466436
 C          3.2653909367       -2.2044987673        0.2041274828
 C          4.3468544342       -1.3775988511        0.4511098529
 C          4.1646944569       -0.1084544789        0.9688951213
 C          2.8756706799        0.3252269517        1.2567161625
 C          1.7968110797       -0.5134008023        1.0291393186
 H          0.8033684195       -0.1652626803        1.2710808675
 N          2.6461457424        1.6079692580        1.7811355555
 S          1.3189464256        2.4842907906        1.2839495963
 O          1.6418770156        3.8499168452        1.6474939265
 O          0.1129727790        1.9586217331        1.8753674970
 C          1.2257844118        2.3694013076       -0.4933715212
 C          2.3686605666        2.2808994340       -1.2610118518
 C          2.2447293829        2.2526260286       -2.6403138694
 C          0.9921721382        2.3268139631       -3.2270142555
 C         -0.1453016274        2.4277730157       -2.4436103373
 C         -0.0262890146        2.4472214857       -1.0647739769
 H         -0.8825348045        2.5049128196       -0.4101271412
 H         -1.1220904163        2.4752811963       -2.8982134780
 H          0.9000672486        2.2970270257       -4.3012307715
 H          3.1272790737        2.1649504997       -3.2533664421
 H          3.3360640733        2.2212508691       -0.7899271857
 H          3.4654670802        2.1917962835        1.8653741622
 H          5.0071937646        0.5408754499        1.1527790702
 H          5.3449630746       -1.7222850638        0.2281660557
 H          3.4255888757       -3.1861931911       -0.2104615725
 H          0.5036095081       -3.1278442669        1.2212118721
 C          1.0069508588       -3.7426905442       -0.7662574794
 C          1.5324544445       -5.0839910231       -0.3521840187
 C          0.1034102045       -4.9381684528       -0.7777762645
 H         -0.1997033654       -5.3477625226       -1.7296000651
 H         -0.6648739566       -4.9826885801       -0.0194475921
 H          2.2116094556       -5.5989067103       -1.0150150890
 H          1.7312636724       -5.2428613629        0.6970542714
 H          1.3184762894       -3.3421540354       -1.7245739236
