  62
        -98.94430755
 C          2.0910065889        1.3886376379        0.0209051456
 C          2.3983961935        0.4284825879       -0.9732800994
 C          3.7461073040       -0.1576196309       -0.9081584387
 C          4.5990960241        0.2357684399        0.0540275473
 C          5.9741705520       -0.3251065091        0.2684857262
 C          5.9450940276       -1.5071849090        1.2475113640
 C          4.8807436503       -2.5549987569        0.9209722938
 H          4.9753873231       -3.3550858180        1.6584339347
 H          3.8905348280       -2.1127159681        1.0546091587
 C          4.9845271337       -3.1477155664       -0.4913090599
 H          5.9779006229       -2.9593201874       -0.9001994357
 H          4.8610399468       -4.2308558325       -0.4259168428
 C          3.9275789571       -2.6381011039       -1.4729402973
 H          2.9348256768       -2.7408586734       -1.0266420421
 H          3.9539603037       -3.2754884901       -2.3609668344
 C          4.0987297012       -1.1882458360       -1.9439241449
 H          5.1170290969       -1.0374162745       -2.3073991786
 H          3.4090139715       -1.0263237405       -2.7773776823
 H          6.9305724273       -1.9764449496        1.2515408740
 H          5.7480449079       -1.1216514009        2.2505203558
 H          6.3859390416       -0.6417843353       -0.6877750449
 H          6.6058043822        0.4624418264        0.6829122582
 O          4.2779727165        1.1711041394        0.9824111681
 C          3.0261482157        1.7588951807        0.9945107135
 O          2.8663258166        2.5955129265        1.9053463269
 H         -0.2653448277       -0.2392618731       -0.8142302466
 C         -0.7092093317        0.0393278611        0.1299100957
 C         -0.2931098818        1.2045801013        0.7583108294
 C         -0.8658781079        1.5426344878        1.9787706986
 C         -1.8233247968        0.7282609876        2.5587650118
 C         -2.2297712945       -0.4366955434        1.9337126549
 C         -1.6629309890       -0.7821053532        0.7132365912
 N         -2.0726299456       -1.9602831801        0.0652314815
 S         -3.7182576490       -2.2406283877       -0.0453294710
 O         -4.1911840423       -2.8306277079        1.1829150659
 O         -3.8940437983       -3.0424109461       -1.2358923317
 C         -4.4516817789       -0.6274681493       -0.2576245207
 C         -4.0548993526        0.1313773561       -1.3409941925
 C         -4.5865576343        1.4003813631       -1.5000311839
 C         -5.5007488693        1.8871938440       -0.5782286914
 C         -5.8933853060        1.1107103768        0.5005675161
 C         -5.3631167900       -0.1588375289        0.6662376607
 H         -5.6360642950       -0.7944351853        1.4928410067
 H         -6.6062014210        1.4907468579        1.2144890703
 H         -5.9087966057        2.8776767164       -0.7033277327
 H         -4.2823289704        2.0053157595       -2.3390309774
 H         -3.3439005801       -0.2748436576       -2.0426557216
 H         -1.6098618346       -2.1155367488       -0.8185551937
 H         -2.9667527746       -1.0883160479        2.3747820484
 H         -2.2564849738        1.0020956708        3.5085662764
 H         -0.5439776364        2.4439543921        2.4797519571
 C          0.7461101191        2.0943008355        0.1183092782
 H          0.9116927752        2.9478963417        0.7885612614
 C          0.2566053365        2.6237446263       -1.2167598285
 C         -0.7709834776        3.7133150948       -1.2314918611
 C          0.6407591751        4.0082469164       -1.6394127411
 H          0.8527361623        4.1880214511       -2.6827783415
 H          1.2588925813        4.5831644853       -0.9649418813
 H         -1.1132497914        4.0909845179       -0.2801130019
 H         -1.5314468246        3.6927448499       -1.9965369311
 H          0.2029184452        1.8669876148       -1.9876995671
 O          1.6066689985        0.0581629395       -1.8825187053
