  62
        -98.93601695
 C          2.5189829797        0.9114207934        0.3804710660
 C          2.9877735412       -0.1361249244        1.2144386097
 C          3.7792745250       -1.1826615966        0.5592256523
 C          3.9988024744       -1.1188831301       -0.7664001874
 C          4.8150135736       -2.0887173109       -1.5772338374
 C          4.0443100633       -3.3403187881       -2.0187535509
 C          3.7449038394       -4.3455802536       -0.9060082842
 H          3.3995547381       -5.2626460031       -1.3873552659
 H          4.6673965105       -4.5840170925       -0.3757129483
 C          2.6778531123       -3.8814611809        0.0952929588
 H          1.9673889977       -4.6920979158        0.2720315740
 H          2.1141027659       -3.0496243000       -0.3338462181
 C          3.2284596825       -3.4568301308        1.4568477830
 H          3.6814146572       -4.3176227519        1.9536217265
 H          2.3936465025       -3.1133515334        2.0731201137
 C          4.2658367614       -2.3280154904        1.3951632812
 H          4.4273589104       -1.9550869572        2.4096129777
 H          5.2112298908       -2.7066288058        1.0070418643
 H          3.1094146663       -3.0265785128       -2.4889694335
 H          4.6468533611       -3.8415135731       -2.7797733532
 H          5.1378530351       -1.5505490621       -2.4710626493
 H          5.6990697989       -2.3848200567       -1.0116414754
 O          3.4986495886       -0.1208363017       -1.5400591789
 C          2.7300377158        0.9052306428       -0.9997381666
 O          2.3166942425        1.7172295236       -1.8466196094
 O          2.7547908093       -0.1931869598        2.4516986177
 C          1.7045851899        2.0135390072        1.0342880351
 C          0.4248644118        2.2443067315        0.2706959259
 C          0.1389487458        3.4206129025       -0.4081110237
 C         -1.0536218181        3.5572324964       -1.0970174799
 C         -1.9821689176        2.5336763637       -1.1227927028
 C         -1.7096024828        1.3538149856       -0.4419815074
 C         -0.5166029467        1.2219406280        0.2531892449
 H         -0.3000855182        0.3017306062        0.7828115291
 N         -2.6398669589        0.2968746296       -0.4741838366
 S         -4.2696856384        0.7018612394       -0.2818560648
 O         -4.7826064790        1.1498009228       -1.5522073688
 O         -4.4250918890        1.6233741644        0.8215357457
 C         -4.9751418557       -0.8826399513        0.1257508036
 C         -5.2560384530       -1.7674348912       -0.8981515779
 C         -5.7868234286       -3.0081978249       -0.5834668629
 C         -6.0265730968       -3.3415818750        0.7414850530
 C         -5.7407277034       -2.4424834596        1.7578613710
 C         -5.2079910075       -1.2003372117        1.4503618406
 H         -4.9788828346       -0.4669500205        2.2069522437
 H         -5.9309853619       -2.7032695607        2.7865479570
 H         -6.4418165387       -4.3071346770        0.9835004012
 H         -6.0129527252       -3.7090999300       -1.3707437228
 H         -5.0629658229       -1.4611138986       -1.9129864978
 H         -2.3795212594       -0.4556525231        0.1487622120
 H         -2.9139381940        2.6321879475       -1.6561356897
 H         -1.2619564742        4.4744572629       -1.6273646584
 H          0.8595811695        4.2215474807       -0.4178671842
 H          1.4363404288        1.6003289603        2.0213771229
 C          2.4816328229        3.2927198731        1.3059607950
 C          3.9488095375        3.2498949821        1.6092122550
 C          3.4651126865        3.8702133100        0.3345439250
 H          3.5150459639        4.9451596061        0.2383345791
 H          3.6257287209        3.3427653409       -0.5922687082
 H          4.3328825743        3.8953412529        2.3847360833
 H          4.4416792147        2.2900081021        1.5549774231
 H          1.8934402526        4.0029884119        1.8795774990
