  62
        -98.92973527
 C         -2.2303290301       -0.2357814480        0.3954189587
 C         -3.3315392304       -0.8488778425       -0.2493968381
 C         -4.4392353484        0.0464315711       -0.6428139770
 C         -4.3383050452        1.3648674452       -0.4077594204
 C         -5.3643099499        2.4279346500       -0.6878173210
 C         -6.2375565611        2.6798444345        0.5530894055
 C         -7.4558435162        1.7658414363        0.6801470229
 H         -7.9043190673        1.9571035105        1.6577695569
 H         -8.1918597895        2.0425864523       -0.0775860288
 C         -7.1667078095        0.2675418726        0.5563507147
 H         -6.2640892812        0.0194582593        1.1178685412
 H         -7.9943507367       -0.2720958920        1.0208401238
 C         -7.0229456157       -0.2012234295       -0.8992020933
 H         -7.3813959639        0.5855661882       -1.5626629136
 H         -7.6699951506       -1.0649330076       -1.0653683443
 C         -5.6061697039       -0.6232520858       -1.3167468957
 H         -5.5010622750       -0.4986897479       -2.3995379407
 H         -5.4681918618       -1.6893749730       -1.1110970323
 H         -6.5906865736        3.7127996462        0.5292336307
 H         -5.6018506044        2.5729154859        1.4360180713
 H         -4.8107765067        3.3414342707       -0.9149638395
 H         -5.9705659046        2.1614412993       -1.5484294753
 O         -3.2495167857        1.9186019108        0.1965925979
 C         -2.1872454441        1.1428758360        0.6168824913
 O         -1.2742852554        1.7858283060        1.1763590868
 O         -3.4119917909       -2.0798579277       -0.4920674327
 C         -1.0189742009       -1.0094715161        0.8887867536
 C          0.0136810744       -1.1585620199       -0.1994807452
 C         -0.3294035010       -1.6276104516       -1.4639928113
 C          0.6349064873       -1.7575634753       -2.4462433758
 C          1.9527143010       -1.4232361909       -2.1895281269
 C          2.3080421359       -0.9612165875       -0.9273278943
 C          1.3372116046       -0.8304584831        0.0564713137
 H          1.6206763746       -0.4479605638        1.0255918553
 N          3.6501963189       -0.6659487531       -0.6318409539
 S          4.0074880922        0.6167293384        0.4069425211
 O          3.7660512839        0.1947819383        1.7635753389
 O          3.3299360103        1.8166115885       -0.0304658255
 C          5.7631236682        0.7571426630        0.1279818432
 C          6.2446924223        1.7485710874       -0.7055035370
 C          7.6097079968        1.8279066702       -0.9338452745
 C          8.4644429395        0.9175312573       -0.3308886315
 C          7.9661641332       -0.0718619493        0.5040116657
 C          6.6029442306       -0.1558282475        0.7378438120
 H          6.1710319816       -0.9007955026        1.3853709571
 H          8.6341244505       -0.7760699084        0.9731452434
 H          9.5260218596        0.9814793462       -0.5103602074
 H          7.9999449637        2.5981564262       -1.5793732538
 H          5.5427171867        2.4386923658       -1.1456307327
 H          4.2269534490       -0.6258412771       -1.4617919281
 H          2.7027864728       -1.5224438324       -2.9595093027
 H          0.3563534233       -2.1197414970       -3.4244556815
 H         -1.3559260697       -1.8935896729       -1.6642635609
 H         -0.5735899499       -0.3748410312        1.6727928520
 C         -1.3840238121       -2.3379583932        1.5398405723
 C         -1.0473769493       -3.6710698950        0.9501025318
 C         -0.3079799619       -3.1821505905        2.1566474112
 H         -0.4998797216       -3.6487380651        3.1110592576
 H          0.7128934190       -2.8551142319        2.0223745701
 H         -1.7703239162       -4.4635690605        1.0676597856
 H         -0.5257500147       -3.6946008932        0.0067153297
 H         -2.3223752636       -2.2758241386        2.0816678050
