  62
        -98.93521887
 C         -1.8543399867       -0.7608160263        0.0570002132
 C         -2.6033621706       -0.1528011554        1.0927456184
 C         -3.7264100308        0.7184385454        0.6955283082
 C         -3.9379870642        0.9390010443       -0.6150851627
 C         -5.0313742765        1.7473589117       -1.2614302014
 C         -6.3864538685        1.0216440895       -1.2557598567
 C         -6.7477397393        0.3442847014        0.0635999961
 H         -7.6714212208       -0.2185605440       -0.0946408936
 H         -5.9699777648       -0.3770680433        0.3208608954
 C         -6.9730530392        1.2898834499        1.2410566929
 H         -7.7748281942        1.9882857569        0.9911707506
 H         -7.3129587354        0.6826072633        2.0839175553
 C         -5.7532774347        2.0933294139        1.6975396121
 H         -5.9924284618        2.5198857673        2.6761414989
 H         -5.5648483758        2.9330514342        1.0338401380
 C         -4.4813749985        1.2713794403        1.8805059374
 H         -3.7537162806        1.8748847588        2.4368327551
 H         -4.6981319041        0.4148301654        2.5291669475
 H         -7.1630078775        1.7400405440       -1.5237319351
 H         -6.3591994636        0.2502315644       -2.0293403232
 H         -5.1104511298        2.7195802268       -0.7838253917
 H         -4.7283003440        1.9105757307       -2.2981550422
 O         -3.1477627697        0.3869792419       -1.5785625250
 C         -2.0952499051       -0.4651666794       -1.2853128831
 O         -1.4753064690       -0.8656660499       -2.2870354798
 H          0.4933019946        0.6740646334        0.5499223887
 C          1.0286221439       -0.0016539554       -0.1063419904
 C          0.5425600646       -1.2915903959       -0.2870632740
 C          1.2380533580       -2.1487104628       -1.1283217353
 C          2.3737870698       -1.7123063279       -1.7891331959
 C          2.8428664378       -0.4230529612       -1.6224309782
 C          2.1605520370        0.4396727141       -0.7730576739
 N          2.6318464850        1.7497186666       -0.5892336012
 S          4.2758363658        1.9881982931       -0.4025482555
 O          4.3935243642        3.2055961003        0.3697285590
 O          4.9181840940        1.9993596843       -1.6932560611
 C          4.8509294023        0.5896220933        0.5447266337
 C          5.8119607279       -0.2502734754        0.0203701205
 C          6.2241929447       -1.3444023801        0.7643415994
 C          5.6675448198       -1.5804584227        2.0114851471
 C          4.7048088254       -0.7254107979        2.5262039163
 C          4.2910786689        0.3712682522        1.7880620588
 H          3.5483559096        1.0572899596        2.1631123384
 H          4.2725987387       -0.9101834410        3.4965910331
 H          5.9851983532       -2.4349523615        2.5878015600
 H          6.9741529932       -2.0095193798        0.3677148055
 H          6.2151357321       -0.0312719572       -0.9549308722
 H          2.0984143618        2.2952731154        0.0705665835
 H          3.7116438558       -0.0632955503       -2.1494260624
 H          2.8967632158       -2.3846565713       -2.4518487087
 H          0.8756639547       -3.1500300684       -1.2910014117
 C         -0.7114149216       -1.6768284888        0.4563717029
 H         -0.5506690475       -1.4550116956        1.5249579192
 C         -1.0370006497       -3.1601069050        0.3709153228
 C         -2.4440808838       -3.6499148961        0.5334132644
 C         -1.7608340004       -3.7614124704       -0.7948980221
 H         -1.4600190221       -4.7421937379       -1.1334457849
 H         -2.0650772459       -3.1002242555       -1.5907384780
 H         -2.6124989489       -4.5499674283        1.1054625803
 H         -3.2221028000       -2.9087886364        0.6469539216
 H         -0.2635042929       -3.7691315268        0.8284263527
 O         -2.3480487191       -0.3282647294        2.3153379423
