  62
        -98.93772959
 C         -2.4190003372       -1.3459973993        0.3728149942
 C         -2.6345231310       -0.5817547306       -0.7990858199
 C         -3.4633297938        0.6249043914       -0.6393247022
 C         -3.9290543198        0.9465425543        0.5809909242
 C         -4.7110129903        2.1838392926        0.9195080042
 C         -3.7647378426        3.3988064447        1.0021783794
 C         -4.0079536624        4.4611056811       -0.0700111313
 H         -4.9017234895        5.0312857389        0.1918517473
 H         -3.1591278793        5.1480404772       -0.0467236730
 C         -4.1870029723        3.9381153904       -1.4983815648
 H         -5.2034932609        3.5634281705       -1.6274440268
 H         -4.0839301937        4.7963250035       -2.1656913200
 C         -3.2028837077        2.8484537337       -1.9439483879
 H         -2.2783740496        2.9005537649       -1.3670760842
 H         -2.9340078541        3.0391796544       -2.9850238338
 C         -3.7631329071        1.4150262616       -1.8829712094
 H         -3.3169481242        0.8338814266       -2.6954492947
 H         -4.8438627429        1.4388773162       -2.0484366363
 H         -2.7353823932        3.0390509217        0.9307741772
 H         -3.8633036078        3.8718438923        1.9805159876
 H         -5.4809093780        2.3488008965        0.1691796111
 H         -5.1918079871        2.0110331343        1.8825622514
 O         -3.6657766563        0.2072034209        1.6906250070
 C         -2.9060569375       -0.9486441232        1.6170315564
 O         -2.7316626426       -1.5200357215        2.7134933701
 O         -2.1666209389       -0.8905553476       -1.9255642453
 C         -1.5818054148       -2.6134131207        0.3181596054
 C         -0.1652706502       -2.2522500858       -0.0599923904
 C          0.5094315650       -2.7890370253       -1.1472290030
 C          1.7984328608       -2.3772426374       -1.4418590232
 C          2.4424962968       -1.4370027648       -0.6592734987
 C          1.7782364908       -0.8981441953        0.4355289196
 C          0.4875927058       -1.3095371602        0.7259119332
 H         -0.0338195665       -0.8861519963        1.5767728297
 N          2.4302699346        0.0471622252        1.2500799310
 S          3.0762010192        1.4051324003        0.4987955707
 O          3.1193537043        2.4208330192        1.5288389011
 O          2.3515490802        1.7421034333       -0.7049682746
 C          4.7394936593        0.9100280548        0.1016801087
 C          5.5465467300        0.4657219885        1.1308342132
 C          6.8443474514        0.0753473413        0.8422052650
 C          7.3110633716        0.1377138333       -0.4625535366
 C          6.4895043279        0.5899776612       -1.4837203526
 C          5.1896265235        0.9813328457       -1.2019772599
 H          4.5121732929        1.3330070879       -1.9638490769
 H          6.8540662341        0.6381530205       -2.4972227442
 H          8.3212460960       -0.1678401462       -0.6848848350
 H          7.4860048316       -0.2769808205        1.6336465227
 H          5.1450754089        0.4354838252        2.1299894798
 H          1.8861811075        0.3221967325        2.0556197833
 H          3.4445191207       -1.1133125486       -0.8885038956
 H          2.3089945671       -2.7960473459       -2.2955291763
 H          0.0228308664       -3.5191856978       -1.7721513885
 H         -1.5655553908       -3.0072071347        1.3448269495
 C         -2.2192777683       -3.6432351319       -0.5889156007
 C         -1.9269197586       -5.0987900057       -0.3871410044
 C         -3.2732826712       -4.5479326822       -0.0277862850
 H         -4.1191035694       -4.8006850518       -0.6492718173
 H         -3.5197822863       -4.4350290643        1.0182087126
 H         -1.8502581413       -5.7349749730       -1.2557008662
 H         -1.2586402329       -5.3667124090        0.4171159613
 H         -2.3591141890       -3.2818221462       -1.6005790507
