  62
        -98.93451167
 C         -2.0022007980       -0.5948288597        0.1161288627
 C         -2.6760962679        0.5382737518        0.6331398020
 C         -4.0499837257        0.7893675702        0.1597869351
 C         -4.5826146602       -0.0546950480       -0.7431200959
 C         -5.9653192678       -0.0322010131       -1.3379849420
 C         -7.0377257173       -0.5449283093       -0.3626962762
 C         -6.9055556301       -0.0309592116        1.0686611227
 H         -7.6460215566       -0.5544612343        1.6792873206
 H         -5.9202993398       -0.2971982714        1.4557534142
 C         -7.1314107467        1.4686351278        1.2454768633
 H         -7.0881880260        1.6792745503        2.3172106831
 H         -8.1352914188        1.7230840115        0.8979640495
 C         -6.1280826291        2.3841907020        0.5412388548
 H         -6.2688205230        3.3917271891        0.9438062614
 H         -6.3352849176        2.4468944828       -0.5236918137
 C         -4.6636646717        2.0247695158        0.7731406862
 H         -4.0417050251        2.8621126007        0.4333063128
 H         -4.4791412994        1.9497695600        1.8509545497
 H         -6.9705347458       -1.6351118716       -0.3311033025
 H         -8.0194750481       -0.2792608501       -0.7582329119
 H         -5.9433510561       -0.6917862784       -2.2083206908
 H         -6.2043744296        0.9678998667       -1.6873539169
 O         -3.8942377743       -1.1263546942       -1.2248148256
 C         -2.6000666125       -1.4271291925       -0.8302763601
 O         -2.1270656088       -2.4338452017       -1.3873965245
 O         -2.1517149473        1.3139332269        1.4790974541
 C         -0.5949810945       -0.8387574450        0.6298994446
 C          0.4156546040       -0.1471899023       -0.2478663826
 C          0.4522018429       -0.3734631131       -1.6204568316
 C          1.3930794000        0.2606147171       -2.4113682162
 C          2.3153213709        1.1289685789       -1.8528133174
 C          2.2863209470        1.3614742552       -0.4848293422
 C          1.3412919866        0.7232211638        0.3081418940
 H          1.3144349006        0.9196483877        1.3714393536
 N          3.2441507601        2.2240871473        0.0884845684
 S          4.8415906992        1.7381013926       -0.0840855046
 O          5.5780500407        2.4602621259        0.9277467985
 O          5.2552916616        1.9464897558       -1.4476484714
 C          4.7966902185       -0.0045429963        0.2904724649
 C          4.8016182639       -0.3901662253        1.6165074286
 C          4.6649798781       -1.7339536174        1.9244441915
 C          4.5115696801       -2.6628371033        0.9062944217
 C          4.5094983202       -2.2595019397       -0.4197069621
 C          4.6528910199       -0.9176695336       -0.7347294030
 H          4.6594544055       -0.5652935561       -1.7529190981
 H          4.3896508285       -2.9846231366       -1.2083764980
 H          4.3891460335       -3.7064823721        1.1477057606
 H          4.6688117231       -2.0518626426        2.9547680997
 H          4.9241313805        0.3630259642        2.3785776489
 H          3.0556198644        2.4393071261        1.0575628002
 H          3.0609045310        1.6247060591       -2.4534028881
 H          1.4091200131        0.0769947569       -3.4750981983
 H         -0.2622946797       -1.0555762024       -2.0561376622
 H         -0.5711457665       -0.3411371338        1.6123472523
 C         -0.2737285438       -2.3101119251        0.8563454469
 C          0.7794042889       -3.0564876628        0.0982717562
 C          1.0109537165       -2.6910338393        1.5313641322
 H          0.9927060312       -3.4696629373        2.2782924741
 H          1.7171638984       -1.8990449858        1.7322775837
 H          0.5742117721       -4.0858526544       -0.1519508037
 H          1.3402641256       -2.5282713445       -0.6563654392
 H         -1.1554646539       -2.8785593279        1.1325305959
