  62
        -98.94052725
 C         -1.6270473205       -1.0260631697        0.8763874106
 C         -2.8612060005       -1.2451897498        0.2152574107
 C         -3.8700247704       -0.1838965297        0.3797836803
 C         -3.5758901903        0.9115630706        1.1015169498
 C         -4.4877234202        2.0886800908        1.2894792094
 C         -4.2602370100        3.1498672603        0.2035919389
 C         -4.2443580301        2.5866425898       -1.2174496608
 H         -3.3764482301        1.9333368596       -1.3329598106
 H         -4.1061758100        3.4284175195       -1.8993496012
 C         -5.5132197001        1.8161128797       -1.6080766706
 H         -5.8189695001        2.1283630294       -2.6089047207
 H         -6.3264190901        2.0711683701       -0.9274611607
 C         -5.3448524303        0.2962165897       -1.6482094500
 H         -4.4745077703        0.0398210994       -2.2572790098
 H         -6.2239600403       -0.1304828004       -2.1385416798
 C         -5.2006329204       -0.3954362398       -0.2867035397
 H         -5.2844232305       -1.4735054698       -0.4528947893
 H         -6.0145880903       -0.0853877094        0.3718309702
 H         -3.3001211500        3.6361275603        0.3900686488
 H         -5.0448276200        3.9038674204        0.2894227986
 H         -5.5209657902        1.7475389509        1.2675486095
 H         -4.2820988501        2.5301889611        2.2661586392
 O         -2.3755550503        1.0931846207        1.7102143298
 C         -1.3805492503        0.1363789906        1.6114922702
 O         -0.3304424303        0.4275892807        2.2190707101
 H          2.2059970695       -1.5749392201        0.8708484109
 C          1.7931559195       -1.4741811204       -0.1214102391
 C          0.4372134695       -1.6692799904       -0.3343992591
 C         -0.0678786805       -1.5268161608       -1.6237951292
 C          0.7727670496       -1.1999093913       -2.6712737393
 C          2.1238098596       -0.9908825214       -2.4522818893
 C          2.6372102396       -1.1257433009       -1.1681056293
 N          4.0058454296       -0.9309385509       -0.9183731393
 S          4.5005569997        0.0235700995        0.3661418803
 O          5.9107369097        0.2381411693        0.1266361003
 O          4.1572454196       -0.6119526100        1.6113830706
 C          3.6170676398        1.5579707295        0.1545419997
 C          2.3595641398        1.7193383799        0.6994939896
 C          1.6745920799        2.8999315698        0.4546775191
 C          2.2506428101        3.8922540395       -0.3220532012
 C          3.5176937700        3.7155825791       -0.8586348411
 C          4.2057648699        2.5371893992       -0.6238499407
 H          5.1955483399        2.3617316589       -1.0135335406
 H          3.9673516101        4.4905415289       -1.4582379214
 H          1.7105424501        4.8076577694       -0.5063793416
 H          0.6908238699        3.0219858801        0.8807089191
 H          1.9161860697        0.9469052101        1.3078139099
 H          4.5472929396       -0.7115545213       -1.7425266594
 H          2.7774434896       -0.7280321117       -3.2700179694
 H          0.3717063296       -1.0980842817       -3.6683670493
 H         -1.1228596305       -1.6827143008       -1.7924462191
 C         -0.4660965805       -2.0062714798        0.8240339810
 H          0.1080506695       -1.8265591395        1.7478715410
 C         -0.8989062307       -3.4654764398        0.8449628516
 C         -0.7196308808       -4.4012371202       -0.3086230881
 C          0.1440418792       -4.5423730098        0.9062311020
 H         -0.0153176509       -5.3821675796        1.5656121623
 H          1.1767183792       -4.2352840000        0.8252731319
 H         -0.2684508807       -4.0221336706       -1.2117522982
 H         -1.4960334508       -5.1302250302       -0.4832996278
 H         -1.7865777307       -3.6162192294        1.4502909016
 O         -3.1281685705       -2.2589528501       -0.4779989089
