  62
        -98.93983767
 C         -2.7106338795       -0.2131851483        0.1412628986
 C         -2.3987551495       -1.0195462788       -0.9841162909
 C         -1.9058887599       -2.3717487489       -0.7091995702
 C         -1.7790698404       -2.7829887784        0.5651968400
 C         -1.3468992810       -4.1510773783        1.0206012707
 C          0.1741721990       -4.3399161687        1.0839886312
 C          0.8632047793       -4.4660453895       -0.2747448985
 H          1.8765972591       -4.8278921398       -0.0904790681
 H          0.3503739692       -5.2180357396       -0.8756980184
 C          0.9463700699       -3.1473584699       -1.0546181491
 H          0.7839776500       -2.3051501596       -0.3770069395
 H          1.9531141001       -3.0211000004       -1.4607592489
 C         -0.0237431797       -3.0278750901       -2.2303789294
 H          0.0916588707       -2.0240457703       -2.6485391498
 H          0.2449778003       -3.7525655205       -3.0032219490
 C         -1.5008805899       -3.2298923595       -1.8689486297
 H         -1.6935079603       -4.2806685693       -1.6502399693
 H         -2.1067704796       -2.9320075997       -2.7285875300
 H          0.6075287491       -3.4986440486        1.6308131210
 H          0.3677224685       -5.2502567986        1.6564880717
 H         -1.7821867910       -4.9070929185        0.3659154109
 H         -1.7532076713       -4.2833916477        2.0258323207
 O         -2.0786484605       -1.9820552478        1.6185785696
 C         -2.4980712100       -0.6656364178        1.4444026989
 O         -2.6603433701       -0.0582512773        2.5183750686
 O         -2.5525159590       -0.6230579793       -2.1722162111
 C         -3.1666499690        1.2028082717       -0.1689507821
 C         -1.9821591686        2.0433343012       -0.5816872221
 C         -2.0958087581        3.0268017908       -1.5582113826
 C         -0.9960529677        3.7799476503       -1.9290812026
 C          0.2452290020        3.5372856602       -1.3682250221
 C          0.3729582215        2.5423864206       -0.4073834617
 C         -0.7426241889        1.8276675711        0.0001817983
 H         -0.6285716293        1.0658320914        0.7568850287
 N          1.6238917112        2.2113414104        0.1568570588
 S          1.9935864207        0.5572648903        0.0262542696
 O          1.6965336810        0.1138244098       -1.3164617003
 O          1.3620431302       -0.1602228991        1.1042370798
 C          3.7577578207        0.5951184298        0.2858915401
 C          4.6069383910        0.5480693791       -0.8033048696
 C          5.9749119809        0.6159809188       -0.5897747893
 C          6.4668843206        0.7327507192        0.7014952608
 C          5.6017010203        0.7781334499        1.7848448605
 C          4.2330375204        0.7094707302        1.5784141502
 H          3.5217601801        0.7319320408        2.3877695800
 H          5.9873321701        0.8664166202        2.7876574806
 H          7.5315275706        0.7865515489        0.8652038111
 H          6.6497353612        0.5773927282       -1.4295852691
 H          4.1775218912        0.4486921488       -1.7873345297
 H          2.3732941015        2.7544094500       -0.2550389312
 H          1.1107469323        4.1017278598       -1.6814962021
 H         -1.0996003173        4.5454231800       -2.6830842929
 H         -3.0471154779        3.1826670009       -2.0454274729
 H         -3.8192261888        1.1136906316       -1.0540488722
 C         -3.9825600091        1.8493188125        0.9395699474
 C         -3.4066986291        2.8579794927        1.8829860771
 C         -4.4063888387        3.2858351026        0.8536157867
 H         -5.4029502887        3.5426154130        1.1790988763
 H         -4.0455762082        3.8724775621        0.0234922165
 H         -3.7037579894        2.8028331432        2.9186019471
 H         -2.3742588789        3.1409289023        1.7438470673
 H         -4.7028018094        1.1569405729        1.3619459175
