  62
        -98.94460929
 C         -2.6567211061       -1.2969545600        0.1155464946
 C         -2.5722227498       -0.2986447175       -0.8854265128
 C         -3.5405840714        0.8002591639       -0.7729352625
 C         -4.4485046025        0.7998357498        0.2194178356
 C         -5.5164012847        1.8350100402        0.4465720912
 C         -5.0367558138        3.0663346226        1.2271100810
 C         -4.1209328849        4.0127329606        0.4499055258
 H         -4.5895698467        4.2731626664       -0.4995836948
 H         -4.0372122079        4.9307492842        1.0347595981
 C         -2.7107453809        3.4616412669        0.1949509498
 H         -1.9687687158        4.2296396944        0.4254606703
 H         -2.5167342077        2.6230641496        0.8682227187
 C         -2.4561888736        3.0079969005       -1.2426662451
 H         -2.5100113001        3.8687583438       -1.9133606940
 H         -1.4409986056        2.6039705761       -1.2971391157
 C         -3.4283995360        1.9333979270       -1.7475622612
 H         -4.4075557105        2.3725510117       -1.9375458798
 H         -3.0363732932        1.5302609809       -2.6845845793
 H         -5.9246096323        3.6244698317        1.5326686038
 H         -4.5269087310        2.7295785032        2.1326051406
 H         -5.9316315485        2.1491053354       -0.5113386696
 H         -6.3037626625        1.3467202241        1.0246739891
 O         -4.5110706750       -0.1895584103        1.1492364332
 C         -3.6043089144       -1.2351979907        1.1409892444
 O         -3.7484668685       -2.0437409404        2.0794704719
 O         -1.7462721213       -0.3136450308       -1.8363494925
 C         -1.6830342759       -2.4653508387        0.1606113293
 C         -0.3245253890       -1.9182852236        0.5258607650
 C         -0.0086425102       -1.7163014484        1.8666160702
 C          1.1968678116       -1.1452151293        2.2287547934
 C          2.1075904072       -0.7521619459        1.2628673264
 C          1.7933694052       -0.9327321086       -0.0767270815
 C          0.5930176460       -1.5308840735       -0.4377952410
 H          0.3561138858       -1.6522836127       -1.4826865885
 N          2.7024479372       -0.5218867071       -1.0668579806
 S          3.3738606879        1.0113371521       -0.9368069505
 O          2.5138570163        1.9178408021       -0.2118750116
 O          3.7182079495        1.3914315437       -2.2897748089
 C          4.8763193678        0.7283411186       -0.0218543134
 C          5.7522335770       -0.2310095003       -0.4912213514
 C          6.9304734752       -0.4581909965        0.2015896127
 C          7.2134407607        0.2756289854        1.3440851107
 C          6.3257241265        1.2376281622        1.8006278992
 C          5.1446277900        1.4689799875        1.1124007374
 H          4.4223349708        2.2029277894        1.4332912043
 H          6.5472217323        1.8076836170        2.6886211552
 H          8.1312049786        0.0969827733        1.8817650274
 H          7.6232304813       -1.2055257865       -0.1504082071
 H          5.4963536507       -0.7767801136       -1.3838994094
 H          2.3661387626       -0.6813045022       -2.0060929649
 H          3.0433545524       -0.2930844718        1.5372826430
 H          1.4296482460       -0.9993132393        3.2727224222
 H         -0.7308524567       -1.9989628963        2.6202007822
 H         -2.0234085324       -3.1080813259        0.9829981886
 C         -1.6966703921       -3.2699513329       -1.1223004019
 C         -1.0657971920       -4.6289059191       -1.1387373813
 C         -2.5565086445       -4.4934889911       -1.2081997717
 H         -3.0524460986       -4.7087443855       -2.1428577526
 H         -3.1363227871       -4.7588738317       -0.3361912241
 H         -0.5360812233       -4.9414158463       -2.0255890898
 H         -0.6321471627       -4.9865224963       -0.2171868186
 H         -1.6170257767       -2.6621964347       -2.0146161023
