  62
        -98.94032864
 C         -1.8674231504       -1.3168165288        0.2699942354
 C         -1.6668028652        0.0526735259       -0.0126842382
 C         -2.8078856480        0.9490434468        0.2496125442
 C         -3.9495061849        0.4284633378        0.7325432752
 C         -5.2392893859        1.1485693973        1.0144593153
 C         -6.1784742524        1.0794080512       -0.2018208251
 C         -5.9839652346        2.1924658626       -1.2307398086
 H         -6.3428540880        3.1349722562       -0.8118560802
 H         -6.6156587460        1.9545527818       -2.0897449767
 C         -4.5460624255        2.3893579639       -1.7178137875
 H         -4.5855222116        2.9156751887       -2.6735902734
 H         -4.0845296879        1.4177563123       -1.9040549121
 C         -3.6825717110        3.1992525705       -0.7393812150
 H         -4.3281018661        3.6614260122        0.0071375154
 H         -3.1969903374        4.0161430020       -1.2773771955
 C         -2.5689392179        2.4059217159       -0.0410721340
 H         -2.3076198150        2.9087787189        0.8961439735
 H         -1.6696773391        2.4175271395       -0.6655225519
 H         -7.2112062679        1.1217946570        0.1501570554
 H         -6.0366088762        0.1068175995       -0.6801723720
 H         -5.0518609066        2.1768664085        1.3085998614
 H         -5.7116168113        0.6243867869        1.8478590990
 O         -4.0986264237       -0.9004995744        0.9922887515
 C         -3.0740130883       -1.8015965609        0.7731788624
 O         -3.3499240297       -2.9825788000        1.0657226826
 O         -0.5865477094        0.5121746405       -0.4666219772
 C         -0.7460914690       -2.3110451691        0.0271938693
 C          0.4795928382       -1.8993897067        0.8057276860
 C          0.3581816150       -1.6879185879        2.1777131575
 C          1.4487543866       -1.3083551205        2.9348164841
 C          2.6840324395       -1.1212279312        2.3380437527
 C          2.8176857856       -1.3342287270        0.9723427826
 C          1.7222912097       -1.7330952820        0.2162223634
 H          1.8583481018       -1.8851329311       -0.8408995302
 N          4.0649525040       -1.1743472731        0.3386166857
 S          4.2115066540       -0.1061641613       -0.9439545913
 O          3.3455880598       -0.5085305050       -2.0205303894
 O          5.6283441875       -0.0838123918       -1.2383006248
 C          3.7235672564        1.4735221787       -0.2734377536
 C          4.7152694349        2.3455863484        0.1345894333
 C          4.3552230649        3.5505747535        0.7146199720
 C          3.0136775704        3.8581287681        0.8863960120
 C          2.0326601747        2.9694063621        0.4761457688
 C          2.3837705785        1.7627114314       -0.1104183831
 H          1.6273095676        1.0651593428       -0.4334479216
 H          0.9863946477        3.1965018775        0.6067191268
 H          2.7306234677        4.7945883584        1.3410139060
 H          5.1181235479        4.2430780473        1.0322818779
 H          5.7445628587        2.0654505771       -0.0219662406
 H          4.8281654065       -1.0192067832        0.9828891398
 H          3.5371554747       -0.8174934228        2.9257499402
 H          1.3369429430       -1.1491561044        3.9966810426
 H         -0.6100816967       -1.8253442908        2.6405887625
 H         -1.0997634900       -3.2719045373        0.4291416399
 C         -0.4978728622       -2.4695320010       -1.4581481518
 C          0.0664635803       -3.7501425432       -1.9927557903
 C         -1.3686358975       -3.3999341314       -2.2452963903
 H         -1.6626891747       -3.1114729598       -3.2434532164
 H         -2.1314318837       -3.9413829943       -1.7042723601
 H          0.7620399200       -3.7000126073       -2.8171273200
 H          0.2789369171       -4.5369050535       -1.2845821258
 H         -0.1972682328       -1.5442251906       -1.9372812867
