  62
        -98.93449456
 C         -2.6338016056       -0.4636436412        0.1614415765
 C         -2.1575641451       -1.2536144891       -0.9142326107
 C         -1.3877633594       -2.4680001768       -0.5910088690
 C         -1.1805710490       -2.7693697995        0.7036456019
 C         -0.4159400101       -3.9234677795        1.3003383021
 C          1.1037713039       -3.7448765264        1.2054555527
 C          1.6133346854       -3.3883571197       -0.1876649621
 H          1.2242447486       -2.4084965428       -0.4692182055
 H          2.7010588887       -3.2914177217       -0.1232816017
 C          1.2975684127       -4.4096496105       -1.2796511814
 H          1.8680414942       -4.1144891402       -2.1635613241
 H          1.6556965730       -5.3925428583       -0.9654386458
 C         -0.1736043544       -4.5293494258       -1.6941313474
 H         -0.7268026364       -5.1874133576       -1.0282853517
 H         -0.1954941690       -4.9988420267       -2.6817162412
 C         -0.9058266216       -3.1975914296       -1.8205771122
 H         -1.7985845086       -3.3400850134       -2.4410251764
 H         -0.2811393058       -2.4855116279       -2.3725531288
 H          1.5776266248       -4.6677911312        1.5475585430
 H          1.3959108399       -2.9377846300        1.8835776663
 H         -0.6955764193       -3.9644678499        2.3559191017
 H         -0.7184219043       -4.8588750843        0.8385933284
 O         -1.6755008719       -1.9938756056        1.7095510076
 C         -2.3648234979       -0.8116093734        1.4842605608
 O         -2.6864897181       -0.2201729366        2.5322519643
 O         -2.3771508622       -0.9519573408       -2.1201840994
 C         -3.3047301016        0.8425912794       -0.2318180294
 C         -2.2422913494        1.7934402861       -0.7301928049
 C         -2.4577837911        2.6294696064       -1.8195125171
 C         -1.4458611862        3.4505998546       -2.2856743190
 C         -0.1897018232        3.4216343607       -1.7063209706
 C          0.0361999477        2.5834427308       -0.6213451738
 C         -0.9977157558        1.8090578822       -0.1198053872
 H         -0.8062654151        1.1724787172        0.7322462526
 N          1.3026618528        2.4684767312       -0.0191010961
 S          1.7631938240        0.8740397516        0.3445737222
 O          1.3005467082       -0.0134966629       -0.6958064226
 O          1.3538768358        0.5684879754        1.6926114869
 C          3.5403613994        1.0181624603        0.2869893633
 C          4.2237526918        0.5613346205       -0.8236202649
 C          5.6017171873        0.7064464869       -0.8692626984
 C          6.2679452934        1.3062377772        0.1886771776
 C          5.5680617969        1.7592378275        1.2974914455
 C          4.1908202372        1.6153428191        1.3505884041
 H          3.6052411320        1.9415317111        2.1943486683
 H          6.0894852867        2.2221646253        2.1196217875
 H          7.3398771359        1.4185426602        0.1505911128
 H          6.1481578636        0.3511267746       -1.7279290929
 H          3.6618990506        0.0961840904       -1.6177425096
 H          2.0254238699        2.9481242442       -0.5399560178
 H          0.6116644184        4.0307085974       -2.0963604213
 H         -1.6270698393        4.0968915126       -3.1310448093
 H         -3.4149459505        2.6119141208       -2.3196516111
 H         -3.9504800425        0.6009753213       -1.0928898789
 C         -4.1841183115        1.4543348937        0.8452243422
 C         -3.7299987964        2.5895946767        1.7078041197
 C         -4.7776456227        2.8200500613        0.6627169050
 H         -5.7961904933        2.9810626415        0.9813132869
 H         -4.4913852861        3.3813580998       -0.2131507039
 H         -4.0157689145        2.5730076419        2.7480635524
 H         -2.7396739275        2.9847318779        1.5384443384
 H         -4.8111115869        0.7107154191        1.3247391528
