  62
        -98.94451024
 C         -1.7295274222       -0.7827032891        0.1153593601
 C         -2.9450407449       -1.1820451407        0.7219019418
 C         -4.1652553358       -0.8937878899       -0.0392045187
 C         -4.0753913194       -0.3006182528       -1.2435699489
 C         -5.2281473885        0.0426470185       -2.1478869594
 C         -5.9059219685        1.3788993004       -1.8145915675
 C         -6.7564215437        1.3785591487       -0.5436299421
 H         -7.3401921478        2.3012096206       -0.5491122418
 H         -7.4612471280        0.5473259307       -0.5798256342
 C         -5.9476293479        1.3142987665        0.7595368367
 H         -4.9079047032        1.5815958404        0.5558340271
 H         -6.3347405501        2.0528907614        1.4651587674
 C         -5.9825189803       -0.0439451400        1.4602836678
 H         -7.0020068676       -0.2619315532        1.7858204368
 H         -5.3501581155        0.0127994109        2.3499560728
 C         -5.4841213465       -1.2115679805        0.5986184987
 H         -5.3392522188       -2.0788740188        1.2472544018
 H         -6.2243946736       -1.4616974425       -0.1607950713
 H         -5.1364458254        2.1508810306       -1.7385490005
 H         -6.5512961989        1.6358568722       -2.6577803104
 H         -4.8207628934        0.1065964716       -3.1591866649
 H         -5.9672607314       -0.7584904747       -2.1207477778
 O         -2.8857221444        0.0485277974       -1.8024151473
 C         -1.6874284641       -0.1614079892       -1.1325075494
 O         -0.6803953712        0.2337523536       -1.7501551677
 H          2.1458849823       -0.1622342603        0.3302080536
 C          1.5513563566        0.5720171630        0.8456547763
 C          0.2336959203        0.2979761528        1.1754752326
 C         -0.5023158465        1.2729708967        1.8456936673
 C          0.0635375893        2.4910103058        2.1649757344
 C          1.3762140739        2.7650805085        1.8208595284
 C          2.1221087927        1.7995067229        1.1576593021
 N          3.4696195267        2.0295023356        0.8403834981
 S          4.0775715071        1.5777752673       -0.6551554844
 O          5.3030196831        2.3409021535       -0.7778591790
 O          3.1111390870        1.7608157194       -1.7112230904
 C          4.4998181837       -0.1415888339       -0.4744521000
 C          4.0662074784       -1.0500301892       -1.4194120594
 C          4.4381550700       -2.3792910493       -1.2899402775
 C          5.2323646720       -2.7733152462       -0.2234060140
 C          5.6578218905       -1.8477263721        0.7176903407
 C          5.2932405168       -0.5169321113        0.5918577144
 H          5.6086507158        0.2330081541        1.2975625679
 H          6.2721075322       -2.1598515737        1.5466751135
 H          5.5176718842       -3.8089833541       -0.1251651101
 H          4.1044372594       -3.0999483714       -2.0198722670
 H          3.4374656937       -0.7010979657       -2.2240294876
 H          3.8115354087        2.9424301796        1.1049918476
 H          1.8194589773        3.7187748917        2.0648746000
 H         -0.5208373590        3.2371251919        2.6823662055
 H         -1.5285415046        1.0592934922        2.1123813657
 C         -0.4300739130       -1.0204966559        0.8632092106
 H         -0.7301330511       -1.4800524973        1.8171788873
 C          0.4599078571       -1.9912868933        0.1179737730
 C          1.4413636055       -2.8333202609        0.8757097226
 C          0.2199419624       -3.4616810040        0.2770158908
 H          0.3352248181       -4.0979098337       -0.5874374890
 H         -0.5789752022       -3.7646258658        0.9379839256
 H          2.4003184796       -3.0390098596        0.4252288836
 H          1.4738283315       -2.7128914218        1.9478379969
 H          0.7392358717       -1.6329828516       -0.8668141064
 O         -3.0061333607       -1.7492581794        1.8454226484
