  62
        -98.93010846
 C         -1.5633545176       -1.6871178562       -0.3370272839
 C         -1.4118183650       -0.2845496504       -0.4595831047
 C         -2.6627146884        0.4973912219       -0.5267530670
 C         -3.8475220482       -0.1335274292       -0.4869147993
 C         -5.2317706462        0.4573419983       -0.5885535809
 C         -5.5112555362        1.7457791985        0.1976084270
 C         -4.7455341369        1.8777786604        1.5221686819
 H         -5.4527861651        2.1214000593        2.3173474369
 H         -4.2795573222        0.9257547023        1.7821640093
 C         -3.6798199433        2.9758035857        1.4881644856
 H         -3.4433652723        3.2658289891        2.5147227722
 H         -4.0991091026        3.8525439317        0.9897478536
 C         -2.3639977255        2.5952977947        0.8097000674
 H         -1.7488545104        3.4949739590        0.7443069224
 H         -1.8184585982        1.8785979989        1.4295431005
 C         -2.4935492393        1.9877156733       -0.5958799932
 H         -3.2971342218        2.4580168891       -1.1572638277
 H         -1.5493591863        2.1564025581       -1.1200636766
 H         -6.5846537010        1.7682723115        0.3937191381
 H         -5.2894209852        2.6093673929       -0.4277193440
 H         -5.4516926590        0.6286768874       -1.6463502696
 H         -5.9032364803       -0.3336199389       -0.2457469439
 O         -3.9445292085       -1.4896474287       -0.3737578936
 C         -2.8210818104       -2.2897892743       -0.2895378143
 O         -3.0679149362       -3.5087634966       -0.1753918183
 H          2.0128843578       -1.0797022541       -0.4018185003
 C          1.7151286371       -1.3703671701        0.5872504140
 C          0.5837687492       -2.1405848916        0.8058440585
 C          0.2435888248       -2.4463215517        2.1244179762
 C          1.0069813968       -1.9994119785        3.1846449754
 C          2.1392614463       -1.2378185839        2.9581336301
 C          2.4926277818       -0.9281096712        1.6504870579
 N          3.6513702600       -0.1885924135        1.3997207384
 S          4.0302534263        0.5510903097       -0.0370052662
 O          4.1988551041       -0.4328666058       -1.0775650110
 O          5.2105959219        1.3271046503        0.2877151599
 C          2.7151221056        1.6810235781       -0.4458315069
 C          2.2299353467        2.5188872987        0.5366137624
 C          1.2692922662        3.4572202473        0.2011190419
 C          0.8146676739        3.5437547155       -1.1050814204
 C          1.3094087573        2.6923374094       -2.0791161539
 C          2.2707230872        1.7519963067       -1.7485930444
 H          2.6795882752        1.0686934374       -2.4768226562
 H          0.9457633036        2.7519683765       -3.0930371446
 H          0.0670961366        4.2773718234       -1.3655340943
 H          0.8767395006        4.1160167631        0.9595458230
 H          2.6034585409        2.4318498713        1.5441622754
 H          4.1038619878        0.2271209950        2.1978662624
 H          2.7436640832       -0.8883841764        3.7810652872
 H          0.7195448341       -2.2456363896        4.1957736300
 H         -0.6444174448       -3.0362886300        2.3084691371
 C         -0.3655771354       -2.6288369031       -0.2585754823
 H         -0.7849943100       -3.5768561738        0.1145419852
 C          0.1283771868       -2.9455546654       -1.6645689555
 C          0.8167542642       -1.9815320760       -2.5811942758
 C          1.5534677961       -3.1810644044       -2.0630658119
 H          1.7550360494       -3.9872403959       -2.7535092387
 H          2.3337201186       -3.0306338612       -1.3341746350
 H          1.0623352233       -1.0027402956       -2.2020130289
 H          0.5163588925       -1.9743043041       -3.6198467896
 H         -0.6024646746       -3.5883324637       -2.1518580557
 O         -0.3045879901        0.3042176194       -0.5202012274
