  62
        -98.94283935
 C         -2.0607533686       -0.8087381806        0.5509553895
 C         -2.8195057686        0.2498084088        1.1174341907
 C         -4.2475530686        0.2804187292        0.7872964007
 C         -4.7709803386       -0.6867383199        0.0127561296
 C         -6.2144170586       -0.8180808494       -0.3906508805
 C         -6.5997537485        0.0263020519       -1.6129540396
 C         -6.6880152585        1.5319702316       -1.3609346380
 H         -7.1750855084        1.9747917726       -2.2319798276
 H         -7.3302370985        1.7181399207       -0.4995678978
 C         -5.3314250885        2.2197210914       -1.1522177973
 H         -4.5322035885        1.5691089417       -1.5149214179
 H         -5.2916674584        3.1354127520       -1.7464941463
 C         -5.0325825985        2.6076670098        0.2961163632
 H         -4.0343106584        3.0517662697        0.3326896637
 H         -5.7488600984        3.3621726595        0.6291046040
 C         -5.0647365785        1.4342630187        1.2842531519
 H         -6.0933789786        1.1225778886        1.4651013815
 H         -4.6283991785        1.7687096377        2.2287606023
 H         -5.8808170085       -0.1675572773       -2.4122194498
 H         -7.5777129086       -0.3212838877       -1.9537491700
 H         -6.8553661086       -0.5554941903        0.4514207897
 H         -6.3740190687       -1.8704570492       -0.6350192817
 O         -4.0197996487       -1.6981733794       -0.4910783215
 C         -2.6517702487       -1.7751127697       -0.2640896215
 O         -2.1121537887       -2.7392780391       -0.8412215725
 O         -2.3230842286        1.1260796780        1.8759636816
 C         -0.5826747186       -0.8359355711        0.8931894395
 C          0.2809138014       -0.2100257100       -0.1765443198
 C          0.1701079014       -0.5698104085       -1.5156483802
 C          0.9915466115        0.0073152725       -2.4668350995
 C          1.9581531515        0.9275953320       -2.0998039785
 C          2.0872823815        1.2822111706       -0.7631388581
 C          1.2398840715        0.7253436896        0.1849622912
 H          1.3475209614        1.0238451685        1.2165820116
 N          3.0827076815        2.1872101101       -0.3406213671
 S          4.2301877815        1.5975764289        0.7304984522
 O          3.5980104314        1.2375820576        1.9724962018
 O          5.2494055915        2.6202628988        0.7960327634
 C          4.8751676114        0.1470969397       -0.0848783393
 C          6.0191633214        0.2666349005       -0.8498403492
 C          6.4774855514       -0.8381237788       -1.5491262603
 C          5.7791320114       -2.0343332988       -1.4828562016
 C          4.6303034613       -2.1367485996       -0.7135340418
 C          4.1706288214       -1.0380338503       -0.0045338906
 H          3.2823011214       -1.0874093609        0.6037080293
 H          4.0840503713       -3.0650884896       -0.6644239728
 H          6.1313491813       -2.8926936282       -2.0328767126
 H          7.3724301714       -0.7623973482       -2.1454803802
 H          6.5300485615        1.2157882805       -0.8715725981
 H          3.5494255416        2.6596225509       -1.1027977466
 H          2.6064101115        1.3689956528       -2.8417781580
 H          0.8869825115       -0.2730743664       -3.5038816498
 H         -0.5633417986       -1.3073618682       -1.8022567910
 H         -0.4873616686       -0.2137015520        1.7941256002
 C         -0.0571033387       -2.2221577514        1.2182593080
 C          1.1452836113       -2.3554879825        2.1025140379
 C         -0.2080359388       -2.7540244129        2.6100021075
 H         -0.4248208588       -3.8036164731        2.7394721563
 H         -0.6871281487       -2.1165376637        3.3390800882
 H          1.8592010812       -3.1363765623        1.8880613471
 H          1.5874296213       -1.4510394029        2.4963712289
 H         -0.1665830587       -2.9231783606        0.4009006173
