  62
        -98.93420627
 C         -2.4477920846       -1.1301597179        0.0288757833
 C         -2.5995009730        0.0094482441       -0.7937961611
 C         -3.9791175829        0.4930016816       -0.9882869941
 C         -4.9923448616       -0.1640817405       -0.3976129430
 C         -6.4523515875        0.1952196201       -0.4203170376
 C         -6.8188559303        1.0516113987        0.8037942467
 C         -6.6147281796        2.5553290831        0.6231073533
 H         -7.3735823584        2.9400647895       -0.0614154714
 H         -6.7821443225        3.0248305910        1.5951810332
 C         -5.2351214481        2.9729198379        0.1069227492
 H         -5.0834777893        4.0218187062        0.3690814989
 H         -4.4596098002        2.3981691018        0.6167478411
 C         -5.0866912392        2.8155177711       -1.4137084763
 H         -4.7095162929        3.7481652812       -1.8381807581
 H         -6.0709262207        2.6519101438       -1.8522899100
 C         -4.1282500221        1.7042080823       -1.8679572906
 H         -4.4152093535        1.3730445345       -2.8716385836
 H         -3.1144568110        2.1087344627       -1.9511772732
 H         -7.8688192925        0.8802931144        1.0494927484
 H         -6.2236240364        0.6977955041        1.6495060720
 H         -6.7104047498        0.7006651875       -1.3460170536
 H         -7.0050913045       -0.7448557411       -0.3653554980
 O         -4.7998874675       -1.2642750243        0.3822584891
 C         -3.5360375600       -1.7691624065        0.6212275018
 O         -3.5101212014       -2.7693212902        1.3671602171
 H          1.4806552313       -0.8772666889       -0.4408200715
 C          1.0873423761       -0.3496283583        0.4115571232
 C         -0.1770744704       -0.6351888225        0.8997225822
 C         -0.6403514250        0.0727765789        2.0064467444
 C          0.1386602306        1.0469200672        2.5989099245
 C          1.4025587527        1.3275695912        2.1098989190
 C          1.8748555937        0.6269402477        1.0069618677
 N          3.1405953376        0.9118281094        0.4710251272
 S          4.0415380773       -0.3352762783       -0.2194140144
 O          3.5922460592       -0.5530763771       -1.5711396723
 O          4.0382386298       -1.4908430040        0.6496076772
 C          5.6570363287        0.4202979485       -0.2395016039
 C          5.9494261123        1.3269377249       -1.2411879244
 C          7.1911857618        1.9418744417       -1.2464030491
 C          8.1146610360        1.6425787585       -0.2554991424
 C          7.8079363127        0.7290339508        0.7416607018
 C          6.5671080570        0.1112041156        0.7535564189
 H          6.2873434117       -0.6107194108        1.5038856991
 H          8.5292224931        0.4959864554        1.5082908531
 H          9.0805851245        2.1223900149       -0.2624803606
 H          7.4342524561        2.6503067014       -2.0218572506
 H          5.2035564883        1.5209780294       -1.9944064390
 H          3.7049194706        1.4912338532        1.0770972328
 H          2.0126668636        2.0884515315        2.5724707252
 H         -0.2373108479        1.5890665057        3.4537217867
 H         -1.6258333466       -0.1525982319        2.3926174497
 C         -1.0641346925       -1.6949104856        0.2924421463
 H         -1.1970125840       -2.4934611603        1.0379660155
 C         -0.4982471422       -2.3038669195       -0.9730644587
 C          0.5115468062       -3.4074700164       -0.8914345396
 C         -0.8851135926       -3.7014103762       -1.3483553324
 H         -1.0502930025       -3.9286851555       -2.3907665955
 H         -1.5437128768       -4.2305055102       -0.6747550088
 H          0.8089831476       -3.7410825229        0.0916509977
 H          1.3113489839       -3.4269946328       -1.6170479700
 H         -0.3962298120       -1.5804943810       -1.7746981097
 O         -1.6313205210        0.6041142684       -1.3368750327
