  62
        -98.93510710
 C         -1.9456998395       -0.9926092805       -0.2483941597
 C         -2.7103801897       -0.4503953699        0.8138384499
 C         -3.1561234198        0.9491006799        0.6923472390
 C         -2.7842717397        1.6473782293       -0.3960367014
 C         -3.1431145197        3.0641061291       -0.7573585823
 C         -4.5827737196        3.1927227187       -1.2845779526
 C         -5.6262213797        2.3851873690       -0.5160880423
 H         -6.5697698796        2.4565682286       -1.0635379125
 H         -5.3325274396        1.3338665091       -0.5125259216
 C         -5.8822197800        2.8463941699        0.9166066374
 H         -6.6867182600        2.2256147600        1.3189522776
 H         -6.2354592401        3.8799142598        0.9013154467
 C         -4.6901957501        2.7581258405        1.8709461577
 H         -5.0732553603        2.9083610011        2.8846270575
 H         -3.9823962202        3.5615659305        1.6858850973
 C         -3.9709969000        1.4123943806        1.8762228386
 H         -3.2868101402        1.3864793711        2.7332528687
 H         -4.7004457600        0.6167761006        2.0658112089
 H         -4.5920162494        2.8449281580       -2.3203859624
 H         -4.8591288297        4.2483254686       -1.2802245832
 H         -2.4526329996        3.3704173487       -1.5464529923
 H         -2.9789006599        3.7161313596        0.0955732074
 O         -2.0312065595        1.0951247588       -1.3877608609
 C         -1.5880168994       -0.2161276911       -1.3504842901
 O         -0.9193668892       -0.5413722917       -2.3520193498
 O         -3.0312097698       -1.1226573094        1.8326335102
 C         -1.4992518894       -2.4346045504       -0.0834404887
 C         -0.1564836195       -2.4954896599        0.6063910315
 C          0.0157755604       -3.2612526092        1.7536439620
 C          1.2394960603       -3.3007146487        2.3974093422
 C          2.3068849703       -2.5644077289        1.9181948320
 C          2.1460872604       -1.7991925396        0.7677781015
 C          0.9247495705       -1.7804431101        0.1106489913
 H          0.8181891706       -1.1800567706       -0.7806654291
 N          3.2154277404       -1.0507950898        0.2513501512
 S          2.8783223804        0.4642227398       -0.4201010797
 O          1.8388079403        1.1221957201        0.3400518397
 O          2.6575497507        0.3070658489       -1.8347150397
 C          4.4459339903        1.2765205501       -0.1571619499
 C          5.4786253205        1.0232227996       -1.0405916496
 C          6.7101448904        1.6195357199       -0.8210200898
 C          6.8882327802        2.4543612905        0.2723450798
 C          5.8424682300        2.7006901109        1.1491248095
 C          4.6085145801        2.1057258507        0.9362766596
 H          3.7643479699        2.2721053210        1.5862600894
 H          5.9824474998        3.3525655515        1.9962990391
 H          7.8473588901        2.9178274707        0.4408663297
 H          7.5242840405        1.4321679395       -1.5023141895
 H          5.2881780007        0.3757390991       -1.8806173893
 H          4.0077603603       -1.0119135594        0.8784120614
 H          3.2583433102       -2.5784986785        2.4277897522
 H          1.3587594702       -3.8968061081        3.2892583926
 H         -0.8246421797       -3.8107401090        2.1509520122
 H         -2.2376665095       -2.8909505800        0.5911778114
 C         -1.4673920291       -3.2350487111       -1.3695791882
 C         -1.6115774690       -4.7250103411       -1.3025993374
 C         -2.7230221990       -3.8883688115       -1.8601124481
 H         -2.9079594188       -3.9090494222       -2.9234254081
 H         -3.6154391791       -3.7625093612       -1.2643453083
 H         -1.0300992788       -5.3272268615       -1.9833791269
 H         -1.7542994391       -5.1714527305       -0.3303380271
 H         -0.7964263590       -2.8246006515       -2.1130441684
