  62
        -98.94892081
 C         -2.2256361209       -0.8774734298        0.0797678706
 C         -1.5873550518       -0.1324694709       -0.9406668932
 C         -2.0102683671        1.2675449433       -1.0754379512
 C         -2.9247865855        1.7634596275       -0.2228399859
 C         -3.4508746854        3.1692075120       -0.2471193917
 C         -2.6405853826        4.1012998795        0.6626102978
 C         -1.1289065198        4.0197437618        0.4494369210
 H         -0.6677982365        4.7626130120        1.1051414171
 H         -0.7638824927        3.0431419474        0.7765236767
 C         -0.6735051675        4.2624697945       -0.9961780338
 H          0.1957214792        4.9234297516       -0.9785843318
 H         -1.4596350716        4.7718430751       -1.5559268500
 C         -0.2517422541        2.9922153191       -1.7374243571
 H          0.4241891891        2.4180972768       -1.0985623104
 H          0.3040487233        3.2852868060       -2.6324109715
 C         -1.3952239785        2.0723538876       -2.1853967914
 H         -2.1572510557        2.6577947099       -2.7052874696
 H         -0.9812139192        1.3439061016       -2.8887896661
 H         -2.9781571621        5.1257199952        0.4913523205
 H         -2.8528662211        3.8433978056        1.7029910729
 H         -3.4282392973        3.5375922344       -1.2711319218
 H         -4.4860100600        3.1507267837        0.0996515869
 O         -3.4717258350        1.0335305874        0.7844490000
 C         -3.1266599051       -0.2951833141        0.9683253936
 O         -3.6836745315       -0.8434536021        1.9436403157
 H         -0.3522509743       -0.9353312865        1.9013389518
 C          0.2412326760       -1.6368970043        1.3267285595
 C         -0.3923854622       -2.4897714820        0.4309287332
 C          0.3863169617       -3.3859214706       -0.2897135018
 C          1.7639616321       -3.3927695529       -0.1505450658
 C          2.3936656605       -2.4949454828        0.6924385205
 C          1.6196567585       -1.6168005864        1.4379834400
 N          2.2771328095       -0.6291014211        2.2328408226
 S          2.2775678245        0.8474820207        1.4047419186
 O          3.0136189863        1.7691371269        2.2451283441
 O          0.9318413302        1.2625496160        1.0720106315
 C          3.2127447836        0.4582997710       -0.0539366175
 C          2.5618911010        0.0234745381       -1.1914693935
 C          3.3224548162       -0.3245694709       -2.2975757677
 C          4.7049103312       -0.2373437673       -2.2464796883
 C          5.3412646257        0.2007603892       -1.0943559845
 C          4.5896674178        0.5501556184        0.0153316068
 H          5.0351793319        0.8986225705        0.9326252960
 H          6.4166450899        0.2677773683       -1.0571203582
 H          5.2891102401       -0.5131956992       -3.1103091492
 H          2.8223266119       -0.6682414262       -3.1886840854
 H          1.4843261496       -0.0463753958       -1.2063782935
 H          1.8171577811       -0.4783608510        3.1218322941
 H          3.4673163686       -2.4591079328        0.7793352708
 H          2.3550842176       -4.0882855668       -0.7257180104
 H         -0.0860607179       -4.0672177567       -0.9782707836
 C         -1.8847945885       -2.3470845067        0.2681600167
 H         -2.3727236866       -2.6577688666        1.2036250751
 C         -2.4502267506       -3.1620279202       -0.8764737020
 C         -2.8211216116       -4.5992046001       -0.6699388487
 C         -3.8925143172       -3.5646156584       -0.8348824519
 H         -4.4592245449       -3.5473519504       -1.7536138135
 H         -4.4632834509       -3.2703583269        0.0341654020
 H         -2.6703641566       -5.0182243580        0.3133917607
 H         -2.6568160881       -5.2960474344       -1.4777506375
 H         -2.0411311185       -2.8687086763       -1.8364433697
 O         -0.7226568493       -0.6193270714       -1.7149460965
