  62
        -98.93627441
 C          1.7481075877       -0.4392199138       -0.3458738927
 C          2.8906129392       -0.4949480919       -1.1775209874
 C          4.1871797160       -0.5945765593       -0.4910167961
 C          4.2135782932       -0.6373860051        0.8538243996
 C          5.4552816866       -0.6548991501        1.6995771171
 C          6.0643654878        0.7601260503        1.7702554110
 C          7.4371057994        0.8899333093        1.1097585457
 H          7.6628736566        1.9556297236        1.0315767876
 H          8.1890072151        0.4412226622        1.7623414025
 C          7.5756976394        0.2483404217       -0.2742386321
 H          7.7214907846       -0.8275855959       -0.1674200172
 H          8.4921027509        0.6437752574       -0.7176305808
 C          6.4139976430        0.4917835167       -1.2462389930
 H          5.8769667422        1.4035686176       -0.9835130031
 H          6.8320093940        0.6461871811       -2.2431622764
 C          5.4147344906       -0.6751866058       -1.3559536660
 H          5.0318557676       -0.7108810171       -2.3802956800
 H          5.9337405113       -1.6189095185       -1.1668437976
 H          5.3663059804        1.4571220534        1.3016849435
 H          6.1574271435        1.0647221628        2.8137584703
 H          6.1725115594       -1.3602049658        1.2857689174
 H          5.1655448186       -0.9935483142        2.6943908709
 O          3.0917908947       -0.5905153600        1.6184204429
 C          1.8326730382       -0.4870528022        1.0453701572
 O          0.8955227912       -0.4493806930        1.8636196951
 O          2.8288678659       -0.4583776959       -2.4368783803
 C          0.3772895580       -0.3274788186       -0.9858969349
 C         -0.3355793134        0.9150337825       -0.5123086392
 C          0.3698350288        2.1128295783       -0.4247582611
 C         -0.2499515323        3.2693594993        0.0049236135
 C         -1.5934160861        3.2629856670        0.3370961270
 C         -2.3116592042        2.0787598461        0.2372990391
 C         -1.6815598331        0.9141470654       -0.1813671110
 H         -2.2574378330        0.0066979074       -0.2512904130
 N         -3.6715846030        2.0354944762        0.5755451528
 S         -4.7366269352        1.1272274469       -0.3385194368
 O         -4.3560568990        1.0992091264       -1.7313946781
 O         -6.0373958272        1.6940396804       -0.0499701871
 C         -4.6630083307       -0.5114060699        0.3533037391
 C         -4.8218920641       -1.5948986781       -0.4878725565
 C         -4.8151193660       -2.8714417191        0.0525926666
 C         -4.6501177291       -3.0409221201        1.4184468796
 C         -4.4934790612       -1.9420505929        2.2495754289
 C         -4.5041648487       -0.6630379531        1.7164104613
 H         -4.3802797379        0.2108269865        2.3340072110
 H         -4.3610138774       -2.0778037611        3.3109159438
 H         -4.6416045548       -4.0349156639        1.8372446098
 H         -4.9364080445       -3.7271412584       -0.5927348068
 H         -4.9349070525       -1.4178381280       -1.5456943329
 H         -4.0726083910        2.9202501790        0.8501334047
 H         -2.0805212898        4.1663231216        0.6717954280
 H          0.3143780607        4.1871953788        0.0760289537
 H          1.4176502341        2.1227643284       -0.6930230772
 H          0.5652163843       -0.2187477699       -2.0651193697
 C         -0.4106917555       -1.6006887749       -0.7571525538
 C         -1.4262788549       -2.0571453313       -1.7601797575
 C         -0.1269093847       -2.7904094239       -1.6227213934
 H         -0.1325616720       -3.7704666293       -1.1703260389
 H          0.6152172432       -2.6714134553       -2.3986927830
 H         -2.3241194936       -2.5348912856       -1.3982046755
 H         -1.5777351417       -1.4425045874       -2.6350421857
 H         -0.6114157210       -1.7806042943        0.2932733182
