  62
        -98.93799948
 C         -2.4568647048       -0.8954763952        0.7987865423
 C         -3.5142760951       -0.9052125408       -0.1436498119
 C         -4.5856332197        0.0776574291        0.0854698587
 C         -4.5058467445        0.9192583183        1.1311981422
 C         -5.4963607413        2.0030946259        1.4414414011
 C         -5.1007037198        3.3274273860        0.7733875888
 C         -4.7583161147        3.1938375249       -0.7105332712
 H         -4.5243796565        4.1941135611       -1.0815860400
 H         -3.8515001962        2.5933324637       -0.8154898893
 C         -5.8741962041        2.5792396922       -1.5669701626
 H         -5.9777980646        3.1673517989       -2.4812828219
 H         -6.8245029226        2.6375855870       -1.0349942204
 C         -5.6212454866        1.1324027366       -1.9945239861
 H         -4.6285132803        1.0512186307       -2.4447308524
 H         -6.3519870551        0.8730329217       -2.7652969218
 C         -5.7340895348        0.0803008999       -0.8841860393
 H         -6.6826662370        0.2012972147       -0.3572921893
 H         -5.7275333958       -0.9048572606       -1.3595233824
 H         -5.9228023609        4.0348476354        0.8963779415
 H         -4.2262470086        3.7287158771        1.2907728470
 H         -6.4830590052        1.6938391667        1.1022413201
 H         -5.5220007734        2.1457041567        2.5230879060
 O         -3.4709125761        0.9066350391        2.0094279294
 C         -2.4262218283        0.0128588248        1.8613858358
 O         -1.5393530423        0.1161479092        2.7335052843
 O         -3.5865573061       -1.6862516530       -1.1281380236
 C         -1.2676531455       -1.8411075734        0.7161399622
 C         -0.2788135555       -1.3269679244       -0.3036665420
 C         -0.4919025046       -1.4634575172       -1.6709593366
 C          0.4299251012       -0.9651868744       -2.5740943264
 C          1.5756711710       -0.3231349440       -2.1386880659
 C          1.7956715169       -0.1772296818       -0.7754873653
 C          0.8725084588       -0.6844711272        0.1302444308
 H          1.0372036339       -0.5599301054        1.1926230222
 N          2.9451882457        0.4957441637       -0.3224232550
 S          4.4048821177        0.1278171333       -1.0913291224
 O          4.4935154522        0.9118871764       -2.2978492551
 O          4.5295989481       -1.3027586638       -1.2585304053
 C          5.5872870810        0.7203902397        0.1022732055
 C          5.8741205317        2.0717358027        0.1416016097
 C          6.7789871472        2.5362097529        1.0827836927
 C          7.3779439639        1.6475058185        1.9634376850
 C          7.0810079848        0.2939375709        1.9105600219
 C          6.1756607689       -0.1772449943        0.9728002785
 H          5.9214550208       -1.2218114152        0.8891847183
 H          7.5507234051       -0.3947759585        2.5942542037
 H          8.0830522951        2.0115689572        2.6939177172
 H          7.0148346845        3.5872858675        1.1259612442
 H          5.3926055769        2.7235853776       -0.5684898496
 H          3.0398845163        0.4528541590        0.6831370318
 H          2.3032791709        0.0623158200       -2.8349320074
 H          0.2544483482       -1.0770338328       -3.6337801510
 H         -1.3944707627       -1.9400198304       -2.0195380854
 H         -0.7842486664       -1.7896135134        1.7010400659
 C         -1.6626440764       -3.2807733683        0.4566875142
 C         -0.6742282224       -4.3649896488        0.7595654747
 C         -1.8900315852       -4.1968619911        1.6195943228
 H         -2.6784759574       -4.9310234393        1.5495042269
 H         -1.7611595904       -3.7888277997        2.6117758992
 H         -0.6243711053       -5.2158500975        0.0977126637
 H          0.2813331200       -4.0702124249        1.1671103869
 H         -2.3032009259       -3.4085393949       -0.4049976985
