  62
        -98.93773602
 C         -1.7751332781       -0.8923234588       -0.7582003269
 C         -2.0296942492       -0.0181106654        0.3231866916
 C         -3.4418070865        0.1411606168        0.7189862809
 C         -4.3966215749       -0.5363471439        0.0546052998
 C         -5.8960195334       -0.6062301235        0.2586497444
 C         -6.6120824923        0.4055394111        1.1494541547
 C         -6.6252370597        1.8355294614        0.6100593794
 H         -7.2722196048        1.8681199183       -0.2702561085
 H         -7.0665450967        2.4834209858        1.3705867782
 C         -5.2661731639        2.3995788962        0.2035184562
 H         -4.8580630095        1.8132293767       -0.6222013594
 H         -5.4245613936        3.4148314241       -0.1703184565
 C         -4.2277068525        2.4725602446        1.3211108019
 H         -3.3704974777        3.0318557934        0.9372664164
 H         -4.6373296045        3.0271300573        2.1675693409
 C         -3.7050404616        1.1176566838        1.8289672011
 H         -2.7415558073        1.2884181447        2.3180682964
 H         -4.3749456777        0.6874616430        2.5695372623
 H         -6.2006190347        0.3800618798        2.1541438628
 H         -7.6508158806        0.0723576807        1.2250213995
 H         -6.3344223666       -0.5734908664       -0.7439100891
 H         -6.0951623270       -1.6110854088        0.6475534200
 O         -4.0962690476       -1.3815870885       -0.9764408386
 C         -2.7975111716       -1.5783123213       -1.4090692338
 O         -2.6859974992       -2.3781672877       -2.3607619472
 H          2.1372419995       -0.2926231022       -0.3773317774
 C          1.7395255938       -1.1074761986        0.2026009012
 C          0.4977879482       -1.6394637986       -0.1044605757
 C          0.0228913702       -2.7064517352        0.6544352789
 C          0.7657257817       -3.2124665205        1.7027328205
 C          2.0019114383       -2.6722645574        2.0120319559
 C          2.4898066623       -1.6138581770        1.2559517819
 N          3.7214264871       -1.0258307334        1.5668222404
 S          4.6939378142       -0.3496654927        0.3930464963
 O          4.6842494030       -1.1261289155       -0.8250392839
 O          5.9829803842       -0.2044192345        1.0358561956
 C          4.0068457603        1.2660551827        0.0969079748
 C          3.4687601522        1.9773881301        1.1505502616
 C          2.9591724833        3.2434316592        0.9109070142
 C          3.0020980097        3.7771818872       -0.3679672877
 C          3.5535697056        3.0536160889       -1.4138882811
 C          4.0623073759        1.7856198661       -1.1814326644
 H          4.4901815578        1.1826278715       -1.9668966496
 H          3.5860480568        3.4708586729       -2.4079942586
 H          2.6014676381        4.7617878581       -0.5512773601
 H          2.5253211971        3.8071446964        1.7210707412
 H          3.4421506545        1.5321968749        2.1310126165
 H          4.2479535809       -1.4707588354        2.3031846126
 H          2.5815529643       -3.0637443764        2.8340929097
 H          0.3817000454       -4.0370705996        2.2845309104
 H         -0.9429207843       -3.1298141389        0.4125847845
 C         -0.3512596471       -1.1113902419       -1.2352218590
 H         -0.4054053560       -1.8896936642       -2.0110217306
 C          0.1886991109        0.1603177776       -1.8561110534
 C          1.2359238810        0.0955280907       -2.9253980115
 C         -0.1691675202        0.4817025864       -3.2747925524
 H         -0.3717470765        1.5094546343       -3.5355494850
 H         -0.7819658376       -0.2327676746       -3.8054600459
 H          1.9973719623        0.8603025704       -2.9449432486
 H          1.5880210349       -0.8807083293       -3.2235981876
 H          0.2284316863        0.9829755526       -1.1510186396
 O         -1.1232277801        0.5992903776        0.9395331849
