  62
        -98.94295669
 C         -1.9905398176       -1.4384076061        0.2743023315
 C         -2.0713204939       -0.3414892702        1.1722634542
 C         -3.1266376727        0.6407880898        0.9092062812
 C         -3.9609631669        0.4554840771       -0.1298227512
 C         -5.1311802225        1.3280766117       -0.4950453997
 C         -4.7638020077        2.5545864241       -1.3406575204
 C         -4.0220420808        3.6605104013       -0.5896459833
 H         -4.0233966990        4.5415448053       -1.2345314187
 H         -4.5752813997        3.9186827087        0.3138512387
 C         -2.5706553124        3.3145032577       -0.2289294336
 H         -2.2370181452        2.4659900189       -0.8304755062
 H         -1.9279847157        4.1599517490       -0.4823747301
 C         -2.3387869397        2.9941895188        1.2478966032
 H         -2.5264561595        3.8856503243        1.8505210470
 H         -1.2910066222        2.7107383596        1.3751915224
 C         -3.2051972535        1.8502932122        1.7908480493
 H         -2.8244450827        1.5684362567        2.7755848476
 H         -4.2395066463        2.1774954101        1.8968736668
 H         -4.1636234245        2.2251820949       -2.1918572056
 H         -5.6951186084        2.9706195690       -1.7319891885
 H         -5.8144188825        0.7030221955       -1.0741950729
 H         -5.6420243734        1.6508731102        0.4128240900
 O         -3.8424116387       -0.5979496798       -0.9776477046
 C         -2.8396535923       -1.5474209165       -0.8275401756
 O         -2.8373324601       -2.4077768460       -1.7291279926
 H          1.4551278541       -1.6729120989        1.5855354056
 C          1.4892928423       -1.7241582055        0.5058162858
 C          0.3556286505       -2.1140113399       -0.1918307910
 C          0.4042153472       -2.1477496373       -1.5813435719
 C          1.5678605356       -1.8083922367       -2.2474790268
 C          2.7014050415       -1.4303407713       -1.5481683258
 C          2.6590636285       -1.3827374279       -0.1613029241
 N          3.8037439377       -1.0064131329        0.5648711803
 S          4.6090293037        0.3984017521        0.1439320880
 O          5.2688370513        0.2109096992       -1.1229402829
 O          5.4618645509        0.6926988542        1.2722926243
 C          3.3341668627        1.6352312426       -0.0043768071
 C          2.8489529330        2.2128246182        1.1522776202
 C          1.8283832461        3.1443124959        1.0598103596
 C          1.3075040694        3.4733720202       -0.1821535186
 C          1.8006503347        2.8800496538       -1.3334941930
 C          2.8246736734        1.9503271306       -1.2475095677
 H          3.2414719881        1.4751699956       -2.1200919047
 H          1.3906681003        3.1381395431       -2.2967176382
 H          0.5126174638        4.1989130878       -0.2516502085
 H          1.4405155495        3.6071278442        1.9532352574
 H          3.2870980901        1.9386683635        2.0985748942
 H          3.6738359566       -1.0430846377        1.5656928435
 H          3.6159682588       -1.1703069409       -2.0559765524
 H          1.5950400681       -1.8411036985       -3.3262527661
 H         -0.4814812269       -2.4290858094       -2.1305961433
 C         -0.9052050080       -2.4620256368        0.5622069406
 H         -0.6891968582       -2.3531803850        1.6339563987
 C         -1.3188914220       -3.8966242057        0.3056257220
 C         -0.5678604420       -4.9978635984        0.9898378879
 C         -1.9722458648       -4.6779159464        1.4040456039
 H         -2.7597084560       -5.3693828278        1.1447848207
 H         -2.1240288483       -4.1806859545        2.3511865091
 H         -0.3871606732       -5.9121813341        0.4460075729
 H          0.2335621203       -4.7188120452        1.6573222848
 H         -1.6666406135       -4.0757561697       -0.7026260757
 O         -1.3015146879       -0.2025666163        2.1605958385
