  62
        -98.93832184
 C         -2.1917403312       -0.9034057342       -0.0862960399
 C         -2.9270802198       -0.2432755070        0.9230966468
 C         -3.7318258450        0.9179903092        0.5038075859
 C         -3.7163295719        1.2988758236       -0.7876043815
 C         -4.3931439943        2.4547568832       -1.4950161316
 C         -5.5085359826        3.2437157861       -0.8144001410
 C         -6.8026672867        2.4605277846       -0.5953775089
 H         -7.2671161515        2.2795337797       -1.5679384300
 H         -7.4845488609        3.0830404120       -0.0120437455
 C         -6.6469161271        1.1093156928        0.0978092767
 H         -6.0411326971        0.4457980099       -0.5226663609
 H         -7.6395983359        0.6579910281        0.1772331331
 C         -6.0474677466        1.1598037576        1.5016408592
 H         -6.1373252336        0.1596994812        1.9343916737
 H         -6.6248895711        1.8459118200        2.1243185901
 C         -4.5646471131        1.5629458357        1.5742887862
 H         -4.1646563572        1.2078255049        2.5288662056
 H         -4.4473263845        2.6439631551        1.5552199959
 H         -5.7403875444        4.0851366763       -1.4730091014
 H         -5.1545452790        3.6663928113        0.1213380648
 H         -4.7687574825        2.0461993493       -2.4385044504
 H         -3.5892016536        3.1502417264       -1.7604610819
 O         -2.9642850031        0.6457318664       -1.7219693720
 C         -2.1942227101       -0.4622351965       -1.4082969028
 O         -1.5742881908       -0.9467800362       -2.3724195942
 O         -2.9038222749       -0.5992161230        2.1335927500
 C         -1.3513405055       -2.1123546793        0.2784935603
 C          0.1031650747       -1.8591432696       -0.0357386893
 C          0.9234353745       -2.7920133759       -0.6560086490
 C          2.2543332973       -2.5011756065       -0.9026571545
 C          2.7960699097       -1.2831248045       -0.5373386243
 C          1.9891167976       -0.3477363613        0.0977074607
 C          0.6585761546       -0.6444567976        0.3483861910
 H          0.0318248743        0.0857514402        0.8468476248
 N          2.5271365207        0.8981137258        0.4665268399
 S          3.9492281044        0.9144275149        1.3604336893
 O          4.0821851302       -0.2792433803        2.1631028097
 O          3.9308637199        2.1718594414        2.0757936807
 C          5.2311313493        0.9680064307        0.1263099935
 C          5.2122374513        2.0044247019       -0.7863519224
 C          6.2064772803        2.0655683116       -1.7495574249
 C          7.1983818018        1.0965411346       -1.7819503461
 C          7.2051423129        0.0642350025       -0.8564817239
 C          6.2129118244       -0.0032100983        0.1093014637
 H          6.1745353193       -0.7895765256        0.8461805407
 H          7.9771373688       -0.6878687152       -0.8834024522
 H          7.9705878486        1.1466926221       -2.5332607906
 H          6.2042549865        2.8666306939       -2.4711147057
 H          4.4261722424        2.7385412671       -0.7246717053
 H          1.8490686397        1.5275230257        0.8709966892
 H          3.8294850065       -1.0507477722       -0.7356842823
 H          2.8778366010       -3.2336820175       -1.3920069512
 H          0.5203019358       -3.7467137558       -0.9509643378
 H         -1.4472585994       -2.2171749548        1.3701687360
 C         -1.9071293717       -3.3579543293       -0.3797156849
 C         -1.7503608016       -4.6960485398        0.2768226996
 C         -3.0932533179       -4.0326487578        0.2393394160
 H         -3.8539564906       -4.4382922635       -0.4105948064
 H         -3.4820100854       -3.6090749877        1.1541067009
 H         -1.5912343121       -5.5617879142       -0.3481547995
 H         -1.2295331254       -4.7315304683        1.2218462889
 H         -1.8682572399       -3.3076279681       -1.4620901271
