  62
        -98.93203836
 C          1.9234234706        1.6139980804        0.4203382601
 C          2.1249857507        0.4585118904        1.2176187301
 C          3.3039686507       -0.3618774895        0.9076297501
 C          4.1203537207        0.0236819605       -0.0896516600
 C          5.3210860007       -0.7348181195       -0.5798313800
 C          4.8737037007       -1.9187497095       -1.4608103799
 C          5.1901639207       -3.2949304595       -0.8747945799
 H          4.6461523007       -4.0349420295       -1.4654886099
 H          6.2566361407       -3.4957807295       -0.9972050100
 C          4.8451117908       -3.4857704095        0.6053394601
 H          4.8757655209       -4.5594386495        0.8028630101
 H          5.6222708108       -3.0346572594        1.2241821101
 C          3.4824621008       -2.9405662095        1.0524912802
 H          2.7978362908       -2.8763917096        0.2067159902
 H          3.0507408609       -3.6496871695        1.7616236302
 C          3.5411674608       -1.5755133595        1.7632811001
 H          4.4986297808       -1.4748163594        2.2822518301
 H          2.7530218408       -1.5402705595        2.5212071902
 H          3.7985408206       -1.8315899596       -1.6307329599
 H          5.3526193406       -1.8456694795       -2.4384163100
 H          5.9296338306       -0.0395465895       -1.1585449300
 H          5.9053829307       -1.0865272994        0.2676670600
 O          3.8959508506        1.1354905704       -0.8335505600
 C          2.7911281905        1.9533461804       -0.6183268699
 O          2.7232523905        2.9140740904       -1.4047179200
 O          1.3497814808        0.1348296604        2.1580914102
 C          0.6986030606        2.4491125604        0.7485022001
 C         -0.5011430194        1.9318083103       -0.0034929898
 C         -0.4612658795        1.7393626103       -1.3810480798
 C         -1.5680839395        1.2523338402       -2.0524182197
 C         -2.7293922494        0.9384203502       -1.3674405296
 C         -2.7729934494        1.1102932602        0.0097232404
 C         -1.6625188294        1.6074018303        0.6811585903
 H         -1.6978606493        1.7293296303        1.7550254203
 N         -3.9395647393        0.7789889302        0.7154462404
 S         -4.7602600793       -0.6182522899        0.3018076705
 O         -5.5764683794       -0.3743602599       -0.8612322095
 O         -5.4711909492       -1.0021442199        1.5005205006
 C         -3.4992752893       -1.8191662698       -0.0890366095
 C         -3.4973998193       -2.4323198999       -1.3253824595
 C         -2.5063019193       -3.3566822098       -1.6139646095
 C         -1.5359246492       -3.6465845198       -0.6674162296
 C         -1.5518037592       -3.0229276297        0.5708474404
 C         -2.5427575192       -2.1012763498        0.8659757804
 H         -2.5776349992       -1.6060054197        1.8230093804
 H         -0.7937260491       -3.2428298697        1.3054424704
 H         -0.7624137892       -4.3635703697       -0.8934558796
 H         -2.4918175493       -3.8448419099       -2.5751764395
 H         -4.2681294694       -2.1746380399       -2.0336368695
 H         -3.8623764093        0.8796561702        1.7166934504
 H         -3.6017198695        0.5673891501       -1.8802968796
 H         -1.5274372995        1.1148034502       -3.1222724897
 H          0.4453607105        1.9794468203       -1.9165028798
 H          0.5159099607        2.2661256104        1.8196027402
 C          0.9106332405        3.9461222804        0.5805203301
 C          0.2695001504        4.7618603203       -0.4973160499
 C         -0.1983013795        4.8986869803        0.9186320201
 H          0.0399999505        5.8007078804        1.4615134501
 H         -1.1596126695        4.4737891703        1.1668600702
 H          0.8542312404        5.5566239003       -0.9344032200
 H         -0.3780655796        4.2638078103       -1.2013114799
 H          1.9121740805        4.2454601804        0.8718459000
