  62
        -98.94123427
 C          2.0167222983        1.2308042072        0.1233169392
 C          2.7915977683        0.6547845846        1.1621618859
 C          3.9675002381       -0.1154257556        0.7435752338
 C          4.2386036971       -0.2571859792       -0.5663639799
 C          5.4142084201       -0.9902926340       -1.1532923662
 C          5.2010464677       -2.5040975531       -1.2899392424
 C          5.2235197462       -3.2856223755        0.0243929154
 H          5.2799195188       -4.3450002073       -0.2337978669
 H          6.1293553780       -3.0370969371        0.5782964391
 C          3.9943590995       -3.0602833424        0.9160987567
 H          3.6287375164       -4.0224836977        1.2823267129
 H          3.1904232444       -2.6192646961        0.3215711784
 C          4.2508794222       -2.1775665647        2.1378391575
 H          3.3080911311       -2.0559639147        2.6774666750
 H          4.9583499283       -2.6740993253        2.8055360198
 C          4.7902096710       -0.7799340042        1.8059812341
 H          4.7290612619       -0.1664011511        2.7082109937
 H          5.8329544048       -0.8432760952        1.4957127243
 H          4.2516262697       -2.6784922884       -1.8019594737
 H          5.9983382417       -2.8889756989       -1.9299383438
 H          6.3029626172       -0.7996393022       -0.5509937825
 H          5.5733971523       -0.5744519215       -2.1505661219
 O          3.4533532907        0.2810861739       -1.5350174287
 C          2.3117594567        1.0130636902       -1.2238524027
 O          1.6761835748        1.3964440124       -2.2221586960
 O          2.5093526172        0.7756057041        2.3843424977
 C          0.7852847050        2.0235511498        0.5243766578
 C         -0.4128630912        1.5449005219       -0.2561946781
 C         -1.1730189201        2.3586335538       -1.0844314604
 C         -2.2501705754        1.8375116971       -1.7810122874
 C         -2.5959602902        0.5045770012       -1.6636718642
 C         -1.8484281492       -0.3164352342       -0.8280040399
 C         -0.7754188069        0.2090298243       -0.1257692469
 H         -0.1892275620       -0.4337635587        0.5201214500
 N         -2.1937646846       -1.6713570439       -0.6944719788
 S         -3.8098660573       -2.0706881075       -0.5363032418
 O         -3.8176451519       -3.3262141550        0.1816094137
 O         -4.4390538082       -2.0844035438       -1.8333170830
 C         -4.5180533629       -0.7748223462        0.4649555872
 C         -5.5239799299        0.0204144251       -0.0444845087
 C         -6.0381525829        1.0377569699        0.7436824041
 C         -5.5367513460        1.2434018945        2.0193470393
 C         -4.5275296901        0.4338267501        2.5183324014
 C         -4.0115291582       -0.5859338016        1.7356981504
 H         -3.2311057793       -1.2366632197        2.0968410569
 H         -4.1386761233        0.5947060711        3.5110679381
 H         -5.9344109477        2.0380527954        2.6305563224
 H         -6.8242545116        1.6673297329        0.3592769275
 H         -5.8828708572       -0.1729933297       -1.0422018249
 H         -1.6205907900       -2.1826730100       -0.0405129860
 H         -3.4174273846        0.0811147520       -2.2183866512
 H         -2.8240762149        2.4781877685       -2.4328951480
 H         -0.9056403029        3.3947632428       -1.2083701756
 H          0.6264484527        1.7535430929        1.5822290441
 C          0.9685694189        3.5330333693        0.4931027970
 C          2.3186209574        4.1495299187        0.7019880977
 C          1.6515507384        4.2424626713       -0.6359748798
 H          1.2627035426        5.2011616530       -0.9470886538
 H          2.0329722608        3.6431582218       -1.4472939689
 H          2.3884314529        5.0406604671        1.3075793467
 H          3.1629095125        3.4834013202        0.8066084545
 H          0.1319555674        4.0489916666        0.9541075951
