  62
        -98.94257939
 C         -1.6978236209       -1.3951241395        0.1239853862
 C         -2.8225796429       -0.8481690624        0.7902558627
 C         -3.4292896162        0.3403864114        0.1751452382
 C         -2.8794955769        0.8547790095       -0.9397377146
 C         -3.3464428739        2.1044412785       -1.6281582118
 C         -2.6176337446        3.3443436111       -1.0900905370
 C         -2.5898957365        3.4317444367        0.4357181689
 H         -1.9966326310        2.6033916883        0.8311225082
 H         -2.0678854142        4.3541130561        0.7006259014
 C         -3.9758362046        3.4203014323        1.0960330401
 H         -4.0048903000        4.1967310765        1.8634890914
 H         -4.7395768458        3.6668518258        0.3575696786
 C         -4.3418920222        2.1022720069        1.7810131940
 H         -5.2350167650        2.2715545432        2.3883988884
 H         -3.5383163415        1.8058003405        2.4604618606
 C         -4.6412528072        0.9245525909        0.8447509529
 H         -5.0667966995        0.1200587280        1.4519288863
 H         -5.3843425501        1.2246552674        0.1030544799
 H         -3.1023823495        4.2337201320       -1.4965889484
 H         -1.5855213125        3.3292902413       -1.4477375050
 H         -4.4196531542        2.2125337229       -1.4833527318
 H         -3.1424823348        2.0074681770       -2.6957760325
 O         -1.7900832895        0.3164760662       -1.5407781172
 C         -1.1618163905       -0.8134755898       -1.0275875594
 O         -0.1667447638       -1.1737261304       -1.6777837757
 O         -3.2904349365       -1.3238197720        1.8601322586
 C         -1.0053323149       -2.5865024335        0.7635220519
 C          0.4795753205       -2.3249277055        0.8179710676
 C          1.4412764326       -3.1710045069        0.2843225983
 C          2.7822101036       -2.8286601312        0.3355781809
 C          3.1921582413       -1.6398294155        0.9090813796
 C          2.2368207633       -0.7863073046        1.4465494233
 C          0.8986161279       -1.1393088733        1.4106910982
 H          0.1564310439       -0.4690023038        1.8282575008
 N          2.6368801742        0.4420961507        2.0089536679
 S          3.6014603892        1.4244711359        1.0517761991
 O          4.9647884463        0.9612361818        1.1238855827
 O          3.3657184707        2.7672145399        1.5358632007
 C          2.9835438312        1.2408198141       -0.6099363704
 C          3.7353024252        0.5680062886       -1.5502974364
 C          3.2214823707        0.4072555499       -2.8267045538
 C          1.9719434915        0.9178912910       -3.1373855512
 C          1.2302982188        1.5942772924       -2.1821615031
 C          1.7364166514        1.7551162447       -0.9039864876
 H          1.1844684545        2.2764209104       -0.1365834176
 H          0.2514046394        1.9747853011       -2.4265351979
 H          1.5655775265        0.7828991616       -4.1270748172
 H          3.7930193538       -0.1219962766       -3.5721091982
 H          4.7031758241        0.1877689350       -1.2670790593
 H          1.8677686488        0.9772592711        2.3858076262
 H          4.2303683625       -1.3517904309        0.9434197990
 H          3.5184565045       -3.4939770754       -0.0887626572
 H          1.1416003751       -4.0871441723       -0.1967769330
 H         -1.3859348695       -2.5998202372        1.7991832125
 C         -1.3669185124       -3.9332910900        0.1570310590
 C         -2.6719031117       -4.1343722535       -0.5522743648
 C         -1.3879863507       -4.1664373624       -1.3228604029
 H         -1.0405739402       -5.1190944151       -1.6952855469
 H         -1.1474101655       -3.3322635695       -1.9622554105
 H         -3.2039726816       -5.0605729469       -0.3940234312
 H         -3.3172502915       -3.2755279008       -0.6673803508
 H         -1.0280927696       -4.7590716135        0.7752716427
