  62
        -98.94351797
 C         -1.8521043100       -0.2745956699       -0.2604923106
 C         -2.9777196201       -0.4779005794       -1.0933990506
 C         -4.2724921101       -0.5601968595       -0.4086390205
 C         -4.3248134400       -0.4651488600        0.9327293995
 C         -5.5664517999       -0.5603910501        1.7776588696
 C         -6.3455050397        0.7566145299        1.8976403001
 C         -7.1003190497        1.1839584005        0.6382365303
 H         -7.7207422799        0.3576898507        0.2897044500
 H         -7.7713592496        1.9954642005        0.9267818807
 C         -6.1992549597        1.6718638208       -0.5047677296
 H         -5.2073443797        1.9067450005       -0.1121037896
 H         -6.6061360296        2.5964812610       -0.9203178592
 C         -6.0509223800        0.6827664812       -1.6608267400
 H         -5.3629019500        1.1122432214       -2.3935339598
 H         -7.0175177200        0.5415356315       -2.1495931999
 C         -5.5066345101       -0.6913440190       -1.2492075305
 H         -6.2725445402       -1.2555973591       -0.7174525307
 H         -5.2345461303       -1.2380820387       -2.1555953007
 H         -5.6517337596        1.5471299697        2.1925135803
 H         -7.0708956597        0.6326802097        2.7050447401
 H         -5.2396273199       -0.8588288206        2.7760691094
 H         -6.2212295901       -1.3365556799        1.3802559193
 O         -3.2160541599       -0.2883064704        1.6996001095
 C         -1.9570343499       -0.1738315604        1.1269697294
 O         -1.0353296098        0.0057348191        1.9444081794
 O         -2.9023440702       -0.5950085690       -2.3465911706
 C         -0.4789519000       -0.1665246399       -0.8954219507
 C          0.4466263498       -1.2336188202       -0.3652078711
 C         -0.0351851003       -2.5291889302       -0.1941190316
 C          0.7838675996       -3.5314100205        0.2864678280
 C          2.1093186796       -3.2698498608        0.5862093780
 C          2.6063726598       -1.9864193808        0.4024265285
 C          1.7757084999       -0.9768479005       -0.0659773611
 H          2.1823852500        0.0116457795       -0.2002419508
 N          3.9436747799       -1.6864672811        0.7009911385
 S          4.8256380999       -0.7060315009       -0.3282029012
 O          4.4029324198       -0.8563645303       -1.7008945112
 O          6.2077870599       -1.0371468112       -0.0512493814
 C          4.5166683002        0.9541803090        0.2343548594
 C          4.4181347303        1.1978877385        1.5898615195
 C          4.2282352505        2.5005002784        2.0226060100
 C          4.1501566006        3.5328768487        1.1000050704
 C          4.2567586005        3.2722505592       -0.2572819897
 C          4.4418858103        1.9706393993       -0.6971342702
 H          4.5182319902        1.7216432797       -1.7436392703
 H          4.1957919306        4.0760844795       -0.9739184194
 H          4.0037634608        4.5458758086        1.4404466308
 H          4.1410375307        2.7063708580        3.0773564101
 H          4.4804890203        0.3729960482        2.2797320092
 H          4.4913859898       -2.4684726413        1.0292864581
 H          2.7527137295       -4.0522793110        0.9594121277
 H          0.3907368694       -4.5278880805        0.4221306277
 H         -1.0678365304       -2.7392357900       -0.4377685416
 H         -0.6366296901       -0.3605221295       -1.9677610007
 C          0.0618589302        1.2388683200       -0.7310608702
 C          0.9663508002        1.8332351602       -1.7674325900
 C         -0.4461070497        2.3167041104       -1.6396958197
 H         -0.6202246096        3.2993952803       -1.2281786094
 H         -1.1584641998        2.0283026308       -2.3990074098
 H          1.7615003603        2.4854163100       -1.4392299398
 H          1.2226869800        1.2207428405       -2.6190704403
 H          0.2333291203        1.4977650996        0.3079726799
