  62
        -98.93446511
 C          2.3097390019        0.2127488949        0.1959233864
 C          3.4667673329        0.4720543516        0.9635664606
 C          4.7208361522       -0.1670372783        0.5197213236
 C          4.6909200958       -0.9609605385       -0.5671800502
 C          5.8373115068       -1.6815341344       -1.2257798466
 C          6.7317630031       -0.7419197526       -2.0503654378
 C          7.0788232466        0.5781981337       -1.3672289683
 H          7.6224193023        1.1927608852       -2.0897209557
 H          6.1564791524        1.1078051933       -1.1217664902
 C          7.9434801951        0.4554663020       -0.1148031278
 H          8.1889848009        1.4699341077        0.2096211188
 H          8.8789965739       -0.0456554231       -0.3731086878
 C          7.3086872182       -0.2793893847        1.0678247349
 H          7.3351166139       -1.3558609777        0.9219088185
 H          7.9235277358       -0.0705715617        1.9482059089
 C          5.8920634193        0.1704358735        1.4110574593
 H          5.6309159221       -0.2242736959        2.4004927841
 H          5.8791703657        1.2603504678        1.5255802399
 H          6.2076499473       -0.5073585782       -2.9800894147
 H          7.6491375108       -1.2751262032       -2.3053336825
 H          6.4196851390       -2.2163041101       -0.4815227309
 H          5.3965756971       -2.4206822379       -1.8982643384
 O          3.5452141604       -1.1900337808       -1.2722680196
 C          2.3358683279       -0.6204433388       -0.9212431601
 O          1.3839104890       -0.9283546746       -1.6637121270
 H         -1.6068704750        0.6672123031       -0.3232579960
 C         -1.3223639274       -0.1390979401        0.3315137535
 C         -0.0479932180       -0.1985535856        0.8709823481
 C          0.2692140206       -1.2619718265        1.7133928361
 C         -0.6621749826       -2.2409339489        1.9975644523
 C         -1.9372292079       -2.1730667195        1.4632452523
 C         -2.2646720510       -1.1166050705        0.6229476651
 N         -3.5421234502       -1.0272427490        0.0473447176
 S         -4.2218250917        0.5042551165       -0.1598734412
 O         -3.7545555057        1.0637301695       -1.4030747061
 O         -4.0055653296        1.3050873861        1.0238963179
 C         -5.9472191569        0.0752040003       -0.3058736584
 C         -6.7606323786        0.1526377254        0.8090063749
 C         -8.0936557231       -0.2089005561        0.6930012099
 C         -8.5874540362       -0.6422916547       -0.5282703294
 C         -7.7592268231       -0.7137164666       -1.6386778846
 C         -6.4256951168       -0.3526066616       -1.5300163249
 H         -5.7471144560       -0.3830423173       -2.3666408076
 H         -8.1472362699       -1.0481806256       -2.5872358140
 H         -9.6250805382       -0.9230852833       -0.6162730475
 H         -8.7408048743       -0.1505974346        1.5532776754
 H         -6.3350261474        0.5041128890        1.7351478957
 H         -4.2015136337       -1.6813318113        0.4461292798
 H         -2.6674359487       -2.9355153673        1.6883556921
 H         -0.3978561101       -3.0606463580        2.6488122989
 H          1.2622584832       -1.3098110361        2.1398990578
 C          0.9969924135        0.8554022848        0.6007524052
 H          1.2048328204        1.3770321766        1.5477407605
 C          0.5702194371        1.8779195887       -0.4309996082
 C         -0.3013726994        3.0307913029       -0.0349831148
 C          1.1404686097        3.2619922129       -0.3710698768
 H          1.3813318711        3.7613252903       -1.2975116509
 H          1.8243117903        3.4809644438        0.4360435542
 H         -1.0585568832        3.3644451281       -0.7292846762
 H         -0.6033872772        3.0960420978        0.9997531052
 H          0.4188093044        1.4405576467       -1.4124054582
 O          3.4606003520        1.2110515817        1.9860366229
