  62
        -98.94967169
 C          1.6870661812        1.2230684777        0.3377711411
 C          1.3296414088        0.1603342268       -0.5244371004
 C          1.8924565980       -1.1512764865       -0.1915149938
 C          2.6563884800       -1.2895253492        0.9068928772
 C          3.2697450759       -2.5708956243        1.4028929096
 C          4.5979362377       -2.9356084146        0.7250603383
 C          4.4805637717       -3.4243147090       -0.7192007327
 H          5.4487341055       -3.8485803582       -0.9924534537
 H          3.7460588374       -4.2286938153       -0.7691427118
 C          4.1178646189       -2.3285559986       -1.7310011568
 H          4.3013136345       -1.3480431606       -1.2858276836
 H          4.7675868514       -2.4112336326       -2.6050792088
 C          2.6745294940       -2.3815665012       -2.2316264908
 H          2.5175932690       -1.5418951035       -2.9130017573
 H          2.5143494660       -3.3057231990       -2.7910909866
 C          1.6187758223       -2.2942852003       -1.1214439742
 H          1.5734751540       -3.2307342855       -0.5652911650
 H          0.6432705898       -2.1204276300       -1.5824140462
 H          5.2584182356       -2.0662805932        0.7639210592
 H          5.0578172092       -3.7290618911        1.3187422022
 H          2.5558849522       -3.3862585326        1.2795478550
 H          3.4527969517       -2.4329299825        2.4710017927
 O          2.9519467893       -0.2485884539        1.7311046861
 C          2.4774893701        1.0263669233        1.4678980593
 O          2.8221652265        1.8880354450        2.3045480391
 O          0.5721008654        0.3008537147       -1.5208050439
 C          1.1356482574        2.6137678781        0.0817915074
 C         -0.3712078667        2.5582023808        0.0013935186
 C         -1.1145876963        3.2867346286       -0.9191695849
 C         -2.4939264974        3.1742228716       -0.9543586182
 C         -3.1574117193        2.3194357967       -0.0931296271
 C         -2.4229475400        1.5949989570        0.8383097797
 C         -1.0474357572        1.7423663703        0.8995479478
 H         -0.4928344256        1.1737557993        1.6322122791
 N         -3.0432604001        0.6903484315        1.7266547449
 S         -2.6370299287       -0.9289030901        1.5616411042
 O         -3.4584651942       -1.6200765130        2.5331285830
 O         -1.2132129864       -1.0993129651        1.6930325921
 C         -3.1890714600       -1.3543908343       -0.0812104987
 C         -2.4265705025       -0.9865441111       -1.1715889595
 C         -2.9089915886       -1.2614421641       -2.4426798617
 C         -4.1340232331       -1.8899998217       -2.6019802464
 C         -4.8876412028       -2.2514123983       -1.4951166519
 C         -4.4150576326       -1.9769559248       -0.2223576424
 H         -4.9633097701       -2.2406180185        0.6677464241
 H         -5.8396621835       -2.7418199988       -1.6195689067
 H         -4.5019168083       -2.0994628421       -3.5940575604
 H         -2.3164394182       -0.9760958569       -3.2972134056
 H         -1.4730646818       -0.5010809161       -1.0291501188
 H         -4.0510686522        0.7725244605        1.7490821120
 H         -4.2305010129        2.2098977490       -0.1389990156
 H         -3.0576776251        3.7453629225       -1.6759653995
 H         -0.6120790151        3.9387296462       -1.6148771455
 H          1.4140520849        3.2200899366        0.9566878309
 C          1.7790768073        3.2113944680       -1.1534936982
 C          2.0029967581        4.6896654264       -1.2545024548
 C          3.1657905276        3.7680465330       -1.0455846205
 H          3.8525882285        3.6061342777       -1.8627581172
 H          3.6331057960        3.7416977253       -0.0715496409
 H          1.8956592922        5.1634604366       -2.2186365451
 H          1.6890260249        5.3017415794       -0.4225139884
 H          1.5277821893        2.6663475917       -2.0562012581
