  62
        -98.93478509
 C          2.1765327155        0.7861279581        0.7245424044
 C          2.5067213990        0.3880331148       -0.5957302033
 C          3.3158159186       -0.8373521990       -0.7094831900
 C          3.6307609459       -1.5324445124        0.3970102709
 C          4.4931802528       -2.7601256420        0.4266205370
 C          5.9702630427       -2.3962831044        0.6341676839
 C          6.4733611711       -1.2961446067       -0.3005486979
 H          5.9601793851       -0.3623413466       -0.0600057301
 H          7.5331785076       -1.1459850504       -0.0838604399
 C          6.2947431392       -1.6010963844       -1.7943625356
 H          7.2166080162       -1.3389710455       -2.3177014592
 H          6.1338750798       -2.6702314400       -1.9373894632
 C          5.1629017731       -0.8240583386       -2.4692931634
 H          5.2688669556        0.2413818936       -2.2507702577
 H          5.2629214028       -0.9485439405       -3.5507224166
 C          3.7402061691       -1.2539423784       -2.0896784721
 H          3.0471607542       -0.7593742781       -2.7765383648
 H          3.6343986794       -2.3334642806       -2.2155334482
 H          6.5697862673       -3.2976890465        0.4948695930
 H          6.1010242093       -2.0569559211        1.6644013247
 H          4.1630054898       -3.3924366089        1.2527271041
 H          4.3694479489       -3.3065502579       -0.5064533561
 O          3.2271119421       -1.1620448335        1.6400573539
 C          2.4972038695       -0.0027590606        1.8315392105
 O          2.1915039276        0.2144517885        3.0238613871
 H         -0.5974221916        0.7168276546        2.0802551435
 C         -0.8992448368        1.0987353524        1.1119323250
 C          0.0036315234        1.8702778999        0.3839468128
 C         -0.3905709224        2.3162329509       -0.8712158671
 C         -1.6488200990        2.0097403138       -1.3631693919
 C         -2.5399592098        1.2484797597       -0.6306689454
 C         -2.1524512211        0.7786507575        0.6171472366
 N         -3.0427296392       -0.0143088480        1.3695825756
 S         -3.5958306427       -1.4217561644        0.6318464719
 O         -3.9375207840       -2.3131382303        1.7194848473
 O         -2.6442994090       -1.9212436752       -0.3347358048
 C         -5.0914624940       -0.9065485292       -0.1855445035
 C         -5.2257228305       -1.0765325067       -1.5494739820
 C         -6.4010729805       -0.6701718494       -2.1623119421
 C         -7.4149653942       -0.1045635761       -1.4043439138
 C         -7.2650017234        0.0568623862       -0.0348521499
 C         -6.0933917552       -0.3482799528        0.5841963792
 H         -5.9372459345       -0.2453798044        1.6450091133
 H         -8.0557273615        0.4968164270        0.5511309487
 H         -8.3276693506        0.2119888222       -1.8840102463
 H         -6.5193363958       -0.7951804408       -3.2266793899
 H         -4.4072264463       -1.5151516218       -2.0979486133
 H         -2.6947477342       -0.2294976142        2.2937562047
 H         -3.5163620255        1.0056453621       -1.0169865013
 H         -1.9341434303        2.3664179623       -2.3412254677
 H          0.2884241301        2.8722417089       -1.4914938866
 C          1.3638229312        2.0452902263        1.0140706856
 H          1.2003881354        2.0147190303        2.1025872318
 C          2.1700175532        3.3149921024        0.7795944239
 C          2.5598284453        3.8927868345       -0.5462532230
 C          1.5712936248        4.6111353633        0.3215128284
 H          1.8896126691        5.5188389520        0.8123915893
 H          0.5332028777        4.6106693638        0.0297656155
 H          3.5566656251        4.3032544969       -0.6291947165
 H          2.2335095641        3.3918557373       -1.4417996738
 H          2.9340702137        3.3949713516        1.5502852734
 O          2.1583972532        1.0067778851       -1.6305922410
