  62
        -98.94215459
 C         -0.4226928704       -1.9176694765        0.5307598490
 C         -1.3536607105       -1.7961706648       -0.5298159462
 C         -2.5959060585       -1.0743847130       -0.2163534587
 C         -2.7886758298       -0.6024413337        1.0281763087
 C         -3.9354527006        0.2641569894        1.4638055375
 C         -3.6877682435        1.7170239001        1.0068217214
 C         -4.6885527480        2.2321450608       -0.0276231986
 H         -5.6349423002        2.4568221282        0.4700458787
 H         -4.2885061472        3.1689792262       -0.4218161261
 C         -4.9830669898        1.2867487937       -1.1963894882
 H         -5.7063684521        0.5314810942       -0.8836273996
 H         -5.4693150815        1.8818300656       -1.9725046497
 C         -3.7663614273        0.5790854841       -1.8080041890
 H         -3.8961791942        0.5527523435       -2.8922759492
 H         -2.8520808446        1.1424171240       -1.6121234129
 C         -3.5752714789       -0.8763900385       -1.3382217381
 H         -3.1736087235       -1.4629616907       -2.1698656687
 H         -4.5433444838       -1.3065695698       -1.0660208677
 H         -3.7179657643        2.3823486490        1.8718265976
 H         -2.6792249586        1.7875316440        0.5915625674
 H         -3.9912426473        0.2126491434        2.5517005567
 H         -4.8659173812       -0.1153437865        1.0475301221
 O         -1.8975541311       -0.7916885462        2.0360805115
 C         -0.6829384159       -1.4233859998        1.8065970198
 O          0.0633021196       -1.4790781785        2.8052206598
 O         -1.1505525979       -2.2516560180       -1.6859819125
 C          0.9521452480       -2.4998595592        0.2687137867
 C          1.6847854330       -1.6786793563       -0.7696442887
 C          2.6970171951       -2.2071571167       -1.5629734825
 C          3.3484159890       -1.4099290619       -2.4881798109
 C          3.0135734910       -0.0765720264       -2.6443071070
 C          2.0022963942        0.4612263010       -1.8563150235
 C          1.3638324759       -0.3380139252       -0.9222283515
 H          0.5682749960        0.0872768617       -0.3327199542
 N          1.6038301240        1.7948908539       -1.9963399608
 S          0.7963871792        2.6171603578       -0.7961826967
 O         -0.5479050320        2.1195577192       -0.6430440064
 O          0.9103788703        4.0053286983       -1.1910124481
 C          1.7429175507        2.3408415116        0.6893813382
 C          1.1649472577        1.7198147254        1.7765920940
 C          1.9332645690        1.4812975507        2.9047402612
 C          3.2615663319        1.8760084030        2.9279773261
 C          3.8260122421        2.5147568612        1.8336646945
 C          3.0631643575        2.7471867927        0.7013921136
 H          3.4676522448        3.2443554776       -0.1650326768
 H          4.8582184984        2.8248951429        1.8587561253
 H          3.8580582422        1.6841433847        3.8058319173
 H          1.4881922670        0.9687720470        3.7428493755
 H          0.1297262574        1.4177372495        1.7284576983
 H          2.1832827787        2.3825243555       -2.5745604684
 H          3.5157903717        0.5381063213       -3.3750302403
 H          4.1293962857       -1.8341413427       -3.1006817947
 H          2.9681633586       -3.2454722578       -1.4614541665
 H          1.5044755573       -2.4151929401        1.2171893331
 C          0.8577071364       -3.9655477090       -0.1084555741
 C          1.9070085394       -4.9379218935        0.3378389326
 C          0.5455690120       -4.9662100427        0.9624300948
 H         -0.1184393610       -5.7842310406        0.7270105769
 H          0.4362484900       -4.5916388799        1.9701248991
 H          2.1791601961       -5.7429651117       -0.3281481607
 H          2.7238977657       -4.5584897762        0.9331590964
 H          0.4001042720       -4.1137366501       -1.0796069116
