  62
        -98.94573727
 C         -1.5167625116       -1.3465511706       -0.7156718176
 C         -2.7993385369       -1.1416125364       -0.1420827401
 C         -3.5032079153        0.0829901746       -0.5314232430
 C         -2.9324031529        0.9253479196       -1.4109546435
 C         -3.5154182956        2.2211929718       -1.9048977540
 C         -3.2507015813        3.4064411893       -0.9662597425
 C         -4.0711356570        3.4061585022        0.3243908211
 H         -3.9593708963        4.3945456659        0.7746534727
 H         -5.1266800394        3.2741343739        0.0835707477
 C         -3.6379561556        2.3479775092        1.3491045499
 H         -2.6326692757        1.9932255003        1.1047422293
 H         -3.5780143969        2.8049435727        2.3399005413
 C         -4.5800758369        1.1484928762        1.4609019584
 H         -5.5487210256        1.4793625961        1.8425117941
 H         -4.1535980643        0.4472377577        2.1828853230
 C         -4.8044468780        0.3936332662        0.1442402726
 H         -5.2958084306       -0.5552823214        0.3729751035
 H         -5.4487867128        0.9723818853       -0.5171210075
 H         -2.1856710310        3.4247826093       -0.7194186013
 H         -3.4811003179        4.3205044747       -1.5188018926
 H         -3.0424451185        2.4307215696       -2.8667086698
 H         -4.5887844364        2.1087981095       -2.0604934554
 O         -1.7270944783        0.6726976586       -1.9781742927
 C         -0.9686726771       -0.4323716379       -1.6149726238
 O          0.1377489776       -0.4739078892       -2.1884573528
 O         -3.3323661132       -1.9538379876        0.6615552097
 C         -0.7536126603       -2.5628762130       -0.2158967736
 C          0.0186459343       -2.1708896998        1.0230762629
 C         -0.2113518781       -2.8017199495        2.2389816407
 C          0.4508876399       -2.3851302200        3.3804825561
 C          1.3315444186       -1.3210070650        3.3316826344
 C          1.5719006314       -0.6838781081        2.1172465153
 C          0.9394319723       -1.1330072823        0.9683576213
 H          1.1238320483       -0.6358771242        0.0309670393
 N          2.4583062926        0.3972606164        2.0528508344
 S          2.2885651964        1.6682342658        0.9710023741
 O          2.8050733293        2.8135223321        1.6948761687
 O          0.9363716314        1.7869676003        0.4819860319
 C          3.4506150403        1.2558025940       -0.3136746235
 C          4.7908230255        1.4110355137       -0.0099615804
 C          5.7404555073        1.0817028611       -0.9617337227
 C          5.3369896174        0.6024604271       -2.1995366445
 C          3.9902046074        0.4556781038       -2.4894030242
 C          3.0324914196        0.7846533777       -1.5404719219
 H          1.9794410427        0.6680639296       -1.7479991889
 H          3.6687089839        0.0829296421       -3.4490118408
 H          6.0746940682        0.3434339971       -2.9427004816
 H          6.7886366730        1.1979555562       -0.7379666973
 H          5.0586069765        1.7995469113        0.9585379572
 H          2.8018510322        0.7162343055        2.9464402516
 H          1.8264321122       -0.9755537307        4.2267337383
 H          0.2635217329       -2.8798101415        4.3215151408
 H         -0.9325087928       -3.6038448400        2.2911673104
 H         -1.5242042709       -3.2847669195        0.0888314612
 C          0.1464926319       -3.2261501145       -1.2364168126
 C          0.5181188020       -4.6652010102       -1.0441743148
 C         -0.4203991397       -4.2736123604       -2.1450033808
 H         -0.0700303746       -4.3117016086       -3.1652562735
 H         -1.4670700386       -4.5175511482       -2.0346506566
 H          1.5171806478       -4.9768355976       -1.3066378592
 H          0.1072648960       -5.1786840620       -0.1881532815
 H          0.8947389674       -2.5639521950       -1.6503077365
