  62
        -98.94607108
 C         -1.4062032726       -1.1637033344       -0.0454219747
 C         -2.2983743280       -0.6796682773        0.9481603183
 C         -3.0283750351        0.5529306807        0.6271441131
 C         -2.8107178366        1.1536946077       -0.5563784900
 C         -3.5153300560        2.3888234579       -1.0362965532
 C         -4.7820648590        2.0334253401       -1.8272989094
 C         -5.6889698108        1.0252387002       -1.1216240442
 H         -6.5639294792        0.8747712493       -1.7577562204
 H         -5.1719503363        0.0651833134       -1.0553764884
 C         -6.1438941931        1.4528428520        0.2807997644
 H         -6.0042890901        2.5274035305        0.4041794740
 H         -7.2129617131        1.2523816697        0.3780239559
 C         -5.4464341078        0.7159293305        1.4258275623
 H         -5.9898832450        0.9319687351        2.3494627912
 H         -5.5055172198       -0.3622324763        1.2569166764
 C         -3.9773184807        1.0885438378        1.6617143152
 H         -3.6692525704        0.6411773129        2.6109925137
 H         -3.8836914448        2.1729999125        1.7459215727
 H         -5.3378238644        2.9528729355       -2.0202819269
 H         -4.4828684273        1.6098731022       -2.7889606933
 H         -3.7721123271        3.0101843252       -0.1804593182
 H         -2.8381524073        2.9443201098       -1.6878734560
 O         -1.9397901597        0.6711189874       -1.4773078050
 C         -1.2149581320       -0.4910323239       -1.2520760875
 O         -0.4591090483       -0.7898549674       -2.1980099235
 O         -2.4754081927       -1.2559224806        2.0532064010
 C         -0.6211510044       -2.4235286443        0.2899464640
 C          0.7823841118       -2.0159105694        0.6657202962
 C          1.1414955135       -1.8738874453        2.0020120845
 C          2.3971150224       -1.4087861712        2.3513319786
 C          3.3113632920       -1.0515342787        1.3760602131
 C          2.9547713064       -1.1779251481        0.0399829050
 C          1.7106839197       -1.6803228333       -0.3092055492
 H          1.4407160379       -1.7550606415       -1.3510045714
 N          3.8467055746       -0.7355553160       -0.9586523767
 S          4.3715437488        0.8460809397       -0.7688454720
 O          4.5734146529        1.3578801223       -2.1063316323
 O          5.5348416912        0.8584635992        0.0838283824
 C          3.0333045025        1.7057565461        0.0463122091
 C          3.2598912868        2.3090797672        1.2668182557
 C          2.2106274742        2.9492050086        1.9062241670
 C          0.9555673343        2.9719642394        1.3185412121
 C          0.7452235066        2.3652963837        0.0901776341
 C          1.7902757736        1.7246160825       -0.5550761774
 H          1.6384710865        1.2397738757       -1.5071796122
 H         -0.2316608639        2.3771063310       -0.3668749400
 H          0.1344087397        3.4622721640        1.8171118933
 H          2.3720497341        3.4226970021        2.8611289123
 H          4.2497030374        2.2609686230        1.6907447496
 H          3.4834302779       -0.8689900618       -1.8923143087
 H          4.2854789518       -0.6622663104        1.6249713220
 H          2.6624201232       -1.3096662925        3.3925967176
 H          0.4169020040       -2.1120943528        2.7670535121
 H         -1.1049052757       -2.8342901291        1.1856989539
 C         -0.6648190140       -3.4699802698       -0.8037636209
 C         -0.2732021745       -4.8783819454       -0.4740228358
 C         -1.7080823570       -4.5438201737       -0.7471646619
 H         -2.1507506044       -4.8808409426       -1.6725867331
 H         -2.3961664392       -4.5306480368        0.0854873976
 H          0.2722407364       -5.4479927466       -1.2106916152
 H          0.0125265708       -5.0902499972        0.5451919405
 H         -0.4039229783       -3.0910110341       -1.7833043707
