  62
        -98.94650988
 C         -1.3592950001       -1.4749875704       -0.3023268794
 C         -2.5709442501       -1.4359743104        0.4356593006
 C         -3.6266553201       -0.5621659204       -0.0835778295
 C         -3.4176427301        0.1288771695       -1.2185209296
 C         -4.3991123400        1.0525524895       -1.8873949197
 C         -4.4000236100        2.4756024095       -1.3125226498
 C         -5.0395273701        2.6170306096        0.0694851202
 H         -6.0306369001        2.1620594996        0.0583483202
 H         -5.1723006401        3.6852245596        0.2523244301
 C         -4.2095735102        2.0210627997        1.2153685102
 H         -4.1763339102        2.7291250698        2.0467633802
 H         -3.1784004901        1.8769305697        0.8819942003
 C         -4.7454868402        0.6995835097        1.7674115103
 H         -5.7215774502        0.8656722598        2.2287302503
 H         -4.0594453902        0.3514922098        2.5439209404
 C         -4.8818796701       -0.4150797203        0.7220307404
 H         -5.7323507701       -0.2178441104        0.0697594804
 H         -5.0521556202       -1.3581564703        1.2471883805
 H         -4.9507672800        3.1100279294       -2.0111445199
 H         -3.3693315200        2.8382946895       -1.2764035098
 H         -5.4029836500        0.6315007895       -1.8234694897
 H         -4.1092046100        1.1066407294       -2.9390149497
 O         -2.2572587300        0.0439583594       -1.9167615595
 C         -1.1883890701       -0.7212567905       -1.4646948594
 O         -0.1844537100       -0.6434513306       -2.1990254294
 O         -2.7609345002       -2.1131640503        1.4822454006
 C         -0.2548862301       -2.3393014604        0.2745317807
 C          0.6332338798       -1.5686115303        1.2268787207
 C          1.2207332898       -2.2099359002        2.3126990208
 C          2.0447838097       -1.5159976102        3.1790333008
 C          2.3082413998       -0.1729704002        2.9761104107
 C          1.7246048498        0.4789459397        1.8963195406
 C          0.8940323198       -0.2216826803        1.0320656706
 H          0.4370078699        0.3044005896        0.2093460006
 N          1.9531003298        1.8449624597        1.6748976005
 S          2.1491363199        2.4192042696        0.1139648905
 O          2.7983084599        3.7014444596        0.2945614804
 O          0.8820280999        2.4497979095       -0.5705543696
 C          3.2940689499        1.2743302495       -0.6325409994
 C          4.6120770899        1.3587787296       -0.2231686193
 C          5.5318605699        0.4524090695       -0.7217383092
 C          5.1187979500       -0.5248976105       -1.6152350792
 C          3.7952620500       -0.5920289206       -2.0188223392
 C          2.8671934300        0.3137558395       -1.5252092293
 H          1.8309132900        0.2734734894       -1.8240362994
 H          3.4689197400       -1.3474299306       -2.7162822692
 H          5.8316906900       -1.2363124106       -2.0013520491
 H          6.5630478199        0.5073875495       -0.4123276592
 H          4.8931510599        2.1419209496        0.4622290306
 H          2.6153786098        2.2692454598        2.3078879205
 H          2.9479634297        0.3724216699        3.6527310807
 H          2.4881993897       -2.0241833201        4.0214281408
 H          1.0144369698       -3.2550710402        2.4846484609
 H         -0.7706335102       -3.1126734803        0.8619357108
 C          0.6052623299       -3.0248073805       -0.7701866692
 C          1.2053432199       -4.3670202305       -0.4830752390
 C          0.0856951399       -4.2425147505       -1.4714570791
 H          0.2988963600       -4.3589189706       -2.5231427891
 H         -0.8913872801       -4.6032984405       -1.1840671191
 H          2.1975390899       -4.5740017105       -0.8527291790
 H          0.9843238299       -4.8286692604        0.4668507710
 H          1.1893431199       -2.3293997405       -1.3581301492
