  62
        -98.94519931
 C         -1.6004834101       -1.6322456997       -0.4268159378
 C         -0.5461999103       -1.7660389609       -1.3664941779
 C          0.6007320995       -2.5878212908       -0.9617967374
 C          0.6026973597       -3.1439277496        0.2630911132
 C          1.7156114296       -3.9800684993        0.8248911037
 C          2.7315271100       -3.1219826088        1.5901489926
 C          3.2297132002       -1.9072214497        0.8069355613
 H          2.4036039203       -1.2007193196        0.6922279208
 H          3.9796522704       -1.4089219693        1.4262574406
 C          3.8320521597       -2.2387145812       -0.5654889885
 H          4.7558455798       -1.6690323016       -0.6859246593
 H          4.0951754995       -3.2964750313       -0.6069150375
 C          2.9352471695       -1.8866321021       -1.7530048086
 H          2.5975311898       -0.8536153019       -1.6498289796
 H          3.5380488893       -1.9484637032       -2.6629832387
 C          1.7078544393       -2.7828923520       -1.9602468575
 H          1.2758792291       -2.5332024529       -2.9339650476
 H          2.0182393590       -3.8300341121       -1.9814077065
 H          2.2600449303       -2.7588887278        2.5067653924
 H          3.5777713699       -3.7543203888        1.8672219430
 H          1.2816805096       -4.7096822685        1.5112441845
 H          2.2105634493       -4.5091225502        0.0121721741
 O         -0.4137016500       -2.9856247585        1.1444377233
 C         -1.5276351799       -2.2079395885        0.8434480528
 O         -2.3529289797       -2.1463923873        1.7726119829
 O         -0.5735316405       -1.2234818320       -2.5051148984
 C         -2.7633709000       -0.7506575998       -0.8532616683
 C         -2.4040577495        0.7006464503       -0.6475810998
 C         -2.7326637395        1.6719047995       -1.5864838907
 C         -2.3565185391        2.9900573296       -1.3964948821
 C         -1.6058440888        3.3557544805       -0.2930184926
 C         -1.2607507588        2.3892461613        0.6437495782
 C         -1.6931636692        1.0818441212        0.4809765696
 H         -1.4285077492        0.3468225619        1.2257340703
 N         -0.4289992284        2.6873474721        1.7440904877
 S          1.0326553813        1.8595322518        1.7811423182
 O          0.8037077910        0.4523033720        1.9734852996
 O          1.8158513018        2.5305735626        2.7958094573
 C          1.7357201510        2.1679763101        0.1717085977
 C          2.6181556413        3.2193056897        0.0138401165
 C          3.0940558710        3.5111132983       -1.2541731239
 C          2.6678721706        2.7626909274       -2.3416797131
 C          1.7782754403        1.7140690878       -2.1680390519
 C          1.3099624306        1.4088056691       -0.8995082314
 H          0.6243562404        0.5912290894       -0.7382971305
 H          1.4343335100        1.1237692070       -3.0032056012
 H          3.0304055304        2.9951040063       -3.3304251734
 H          3.7896975812        4.3231380180       -1.3918263449
 H          2.9194640716        3.7749103604        0.8872462359
 H         -0.2538314282        3.6759451522        1.8650638467
 H         -1.2787033085        4.3760086205       -0.1615955337
 H         -2.6245373891        3.7356101589       -2.1290260028
 H         -3.2685148098        1.3847184987       -2.4789424103
 H         -2.8625981403       -0.9077193608       -1.9401278782
 C         -4.0923496699       -1.1227400888       -0.2156499877
 C         -4.7100554994       -0.3323342076        0.8945215317
 C         -5.3174619198       -0.2961405088       -0.4738723882
 H         -6.2550660299       -0.8057412787       -0.6356785974
 H         -5.2009655297        0.6113855606       -1.0458620391
 H         -5.2099923394       -0.8782990267        1.6795984224
 H         -4.1829777791        0.5411109026        1.2470143507
 H         -4.2310111202       -2.1978397588       -0.1712040366
