  62
        -98.93804168
 C         -1.3915883614       -1.8766534184       -0.4639793409
 C         -1.4587188155       -0.6614604210       -1.1857602920
 C         -2.6525060705        0.1845850045       -0.9636010395
 C         -3.6340290645       -0.2650464597       -0.1624399622
 C         -4.9232527880        0.4099219888        0.2277298108
 C         -4.7241722949        1.5165690882        1.2715321397
 C         -3.6055005583        2.5030875055        0.9490335575
 H         -3.5419722275        3.2145511599        1.7773134494
 H         -2.6489634558        1.9776669427        0.9120088869
 C         -3.7976321413        3.3022135551       -0.3385274729
 H         -3.0151778396        4.0653359119       -0.3554942029
 H         -4.7622138400        3.8140263631       -0.3045733623
 C         -3.7032606825        2.5066616004       -1.6446305259
 H         -3.5277864420        3.2256873218       -2.4500181640
 H         -4.6394661854        2.0051458565       -1.8776703434
 C         -2.5531416461        1.5066697623       -1.6846553082
 H         -2.3363049185        1.2557607297       -2.7295690025
 H         -1.6445634215        1.9899815217       -1.3035955233
 H         -5.6666056658        2.0570885097        1.3813718325
 H         -4.4909749695        1.0453884535        2.2298347020
 H         -5.4274401846        0.8011649703       -0.6508725342
 H         -5.5596824892       -0.3655931594        0.6606229009
 O         -3.5601690587       -1.4812039762        0.4553544449
 C         -2.4394642794       -2.2801008380        0.3650375959
 O         -2.4983552827       -3.3274384973        1.0433338836
 O         -0.5723577319       -0.2662431504       -1.9859935129
 C         -0.1743955153       -2.7860298896       -0.4619493783
 C          0.7910505138       -2.3678973588        0.6218379887
 C          1.4887985886       -3.3112436470        1.3679152193
 C          2.3651630946       -2.9099631735        2.3610498753
 C          2.5535461799       -1.5681272465        2.6386436060
 C          1.8449094311       -0.6158568670        1.9120272759
 C          0.9859842051       -1.0238819980        0.9024277552
 H          0.4375311649       -0.2782716351        0.3539798226
 N          1.9628289353        0.7418578390        2.2161230802
 S          1.5803089012        1.9954076403        1.1847159963
 O          1.9903046071        3.1711667240        1.9241881897
 O          0.1920432199        1.9409545874        0.8060578982
 C          2.6634204202        1.7984821932       -0.2178810775
 C          2.2069979815        1.2962964329       -1.4184505327
 C          3.1081491045        1.1578528919       -2.4647920642
 C          4.4362479439        1.5122810159       -2.2949613978
 C          4.8784916746        2.0147110256       -1.0797017013
 C          3.9854587548        2.1604101623       -0.0324385727
 H          4.2819127466        2.5670206968        0.9207989329
 H          5.9115779840        2.2934839532       -0.9481665228
 H          5.1291394207        1.3987692231       -3.1137728354
 H          2.7568321282        0.7681770788       -3.4066433598
 H          1.1732502597        1.0096244263       -1.5369466219
 H          2.6707545368        0.9888286043        2.8892566052
 H          3.2249784019       -1.2576307304        3.4242428717
 H          2.9023889749       -3.6512643916        2.9328876197
 H          1.3240220613       -4.3625236013        1.1829828758
 H         -0.5554742826       -3.7846234174       -0.1932062089
 C          0.4922797707       -2.9035713992       -1.8260560556
 C          1.8065899631       -2.2671807235       -2.1513990151
 C          1.7146323170       -3.7545850275       -2.0067958903
 H          1.7860398042       -4.3669322011       -2.8929256851
 H          2.1527277438       -4.1984275487       -1.1264702896
 H          1.9260884094       -1.8449766894       -3.1366833824
 H          2.3033403057       -1.7048959896       -1.3755969146
 H         -0.2395388768       -2.9311232151       -2.6265923329
