  62
        -98.94623689
 C         -1.8102506698       -1.0272539504       -0.3123292706
 C         -3.1649004597       -1.3063731208       -0.0117510606
 C         -4.1315603000       -0.2766742610       -0.4088581205
 C         -3.7034995403        0.8353559892       -1.0341816604
 C         -4.5701424006        1.9644307890       -1.5224873903
 C         -4.9159214808        2.9993978288       -0.4429526902
 C         -5.9253270607        2.5325895585        0.6066342498
 H         -6.2391903909        3.4168437684        1.1649085598
 H         -6.8086332306        2.1329795183        0.1074746598
 C         -5.3763685704        1.4944572485        1.5952788297
 H         -5.6629557504        1.7724435984        2.6120382397
 H         -4.2845440504        1.4982877188        1.5581264996
 C         -5.8742499800        0.0686010584        1.3586721296
 H         -5.3967070798       -0.5878793615        2.0906472995
 H         -6.9532991400        0.0249836582        1.5222727796
 C         -5.5700991199       -0.4820833714       -0.0408235805
 H         -5.7609719096       -1.5580909414       -0.0349345605
 H         -6.2225589600       -0.0156932215       -0.7786803104
 H         -5.3308684010        3.8730036787       -0.9509010602
 H         -3.9929541309        3.3097285990        0.0520961898
 H         -4.0092354007        2.4663675192       -2.3137596603
 H         -5.4890136205        1.5624111888       -1.9502091003
 O         -2.3929443403        1.0579473195       -1.3200355905
 C         -1.4141523701        0.1445980297       -0.9553588705
 O         -0.2558913102        0.4872286100       -1.2574905106
 H          2.0148864305       -1.9876840295       -0.1706663208
 C          1.6457850004       -1.4705947896        0.6984788192
 C          0.2871577504       -1.4006064400        0.9610410393
 C         -0.1369178398       -0.7221954902        2.1020128494
 C          0.7734714501       -0.1178901900        2.9460091694
 C          2.1287415801       -0.1705525996        2.6673473593
 C          2.5637238602       -0.8511158994        1.5377047593
 N          3.9366519902       -0.9502256591        1.2444759192
 S          4.5211395701       -0.4642951588       -0.2471810108
 O          3.8975162302       -1.2294061389       -1.2944362408
 O          5.9579098701       -0.5905037285       -0.1320698208
 C          4.0891507196        1.2624060511       -0.3664506106
 C          2.7938693795        1.6213823008       -0.6807987706
 C          2.4669435692        2.9688478307       -0.7081987405
 C          3.4280095190        3.9261420909       -0.4240946304
 C          4.7246708891        3.5470177112       -0.1095679505
 C          5.0587375494        2.2034465213       -0.0751289006
 H          6.0539447295        1.8621687815        0.1603733394
 H          5.4721802389        4.2924174614        0.1096019595
 H          3.1643902187        4.9718905809       -0.4493718003
 H          1.4544598291        3.2489795505       -0.9527479704
 H          2.0510234497        0.8711083106       -0.9015592606
 H          4.5341257202       -0.5802548790        1.9708346392
 H          2.8427067400        0.3062336405        3.3217931793
 H          0.4273839100        0.4044976199        3.8251143994
 H         -1.1963402698       -0.6756069804        2.3155062394
 C         -0.7477077195       -2.0410031902        0.0702065293
 H         -1.2748743793       -2.8109237803        0.6535411592
 C         -0.1664655294       -2.6884441799       -1.1688937608
 C          0.3910051210       -4.0777421598       -1.1016244309
 C         -0.9042217691       -3.8231565601       -1.8109460208
 H         -0.9241286291       -3.8812609200       -2.8889408208
 H         -1.8195968590       -4.1489409203       -1.3386423708
 H          1.2658699310       -4.3082773195       -1.6910999209
 H          0.3563029811       -4.5842881399       -0.1488454109
 H          0.3224884504       -1.9773199998       -1.8265304907
 O         -3.5457740094       -2.3619696809        0.5615168093
