  62
        -98.94485772
 C          1.8897297003        0.1089185697        0.0735026700
 C          2.8852840204        0.9815271498        0.5743986795
 C          4.2104015204        0.3873325499        0.7802640196
 C          4.4027378104       -0.9190575502        0.5214989201
 C          5.6895724804       -1.6764442202        0.7074312602
 C          6.6611690202       -1.5543485407       -0.4744322199
 C          7.3497124702       -0.1958902308       -0.6124025706
 H          8.1555532501       -0.3178511811       -1.3389247206
 H          7.8079856504        0.0760298496        0.3389786592
 C          6.4271672002        0.9366426291       -1.0844397509
 H          5.5216240101        0.5103580189       -1.5224603306
 H          6.9246774301        1.5070829887       -1.8720394812
 C          6.0286148104        1.9273943495        0.0094125587
 H          5.3481758203        2.6629726394       -0.4269659015
 H          6.9151269104        2.4576914997        0.3641073984
 C          5.3264254605        1.2887338500        1.2149315091
 H          4.8919183506        2.0873601703        1.8210729288
 H          6.0458079406        0.7400460603        1.8222471392
 H          6.1207810301       -1.7846951910       -1.3956023598
 H          7.4322340102       -2.3169472606       -0.3425051997
 H          5.4170682703       -2.7278080501        0.8219293007
 H          6.1826541605       -1.3436418198        1.6211929900
 O          3.4117422203       -1.7307672204        0.0648447406
 C          2.1399963803       -1.2371263705       -0.1923297495
 O          1.3424116702       -2.0835370206       -0.6383868690
 O          2.6736490005        2.1942729100        0.8431532890
 C          0.5013598003        0.6613759496       -0.1954530401
 C         -0.5270731096       -0.1234157001        0.5789673904
 C         -0.3425419394       -0.2919254395        1.9499821304
 C         -1.2387695194       -1.0265694192        2.6998156709
 C         -2.3497132695       -1.5972639794        2.1024693312
 C         -2.5501659796       -1.4268248400        0.7391452412
 C         -1.6453863397       -0.6875057403       -0.0129717892
 H         -1.8207237798       -0.5891409507       -1.0706404292
 N         -3.6653606297       -1.9995194202        0.1055351016
 S         -4.5688822898       -1.0865729106       -0.9645029987
 O         -5.8344423499       -1.7810233406       -1.0556360382
 O         -3.8544835300       -0.9035783811       -2.2014498088
 C         -4.7841387997        0.4736796597       -0.1284814193
 C         -5.6884874896        0.5339026702        0.9141456508
 C         -5.8155533094        1.7163017705        1.6241867803
 C         -5.0333207595        2.8106047203        1.2869037898
 C         -4.1327443096        2.7346090799        0.2361069597
 C         -4.0036802497        1.5552551896       -0.4806256098
 H         -3.3170525898        1.4578990092       -1.3049846399
 H         -3.5273425996        3.5875101998       -0.0264485307
 H         -5.1275262394        3.7294150106        1.8439114094
 H         -6.5192053793        1.7810521108        2.4384109004
 H         -6.2849295096       -0.3355271597        1.1384062612
 H         -4.2649859997       -2.5300623099        0.7204883519
 H         -3.0477106494       -2.1798932491        2.6842399316
 H         -1.0749373392       -1.1562387188        3.7589498509
 H          0.5266700606        0.1517328607        2.4161627202
 H          0.5185571304        1.6897245397        0.1955734395
 C          0.2408746101        0.7135451190       -1.6858824000
 C         -0.6389835799        1.7798001888       -2.2637234904
 C          0.8419057600        1.8269940986       -2.4886035106
 H          1.2253832699        1.6042707582       -3.4730974605
 H          1.4162480701        2.5689931988       -1.9532343810
 H         -1.2803266101        1.5243237884       -3.0946337702
 H         -1.0608586998        2.5003031491       -1.5792844306
 H          0.2202943700       -0.2700374712       -2.1429069896
