  62
        -98.94292422
 C          2.3896093833        0.0463704806       -0.4280109151
 C          1.7628157347        0.8698746341       -1.3988029944
 C          1.5160264592        2.2625173134       -1.0180657793
 C          1.8456143689        2.6776938058        0.2180885370
 C          1.6519705991        4.0648832439        0.7674123435
 C          0.2334789745        4.3243098558        1.2939905574
 C         -0.8331065619        4.5227837105        0.2159504397
 H         -1.7135320911        4.9373876173        0.7111021458
 H         -0.4859664116        5.2613242017       -0.5081223508
 C         -1.2406154197        3.2323655395       -0.5088534778
 H         -0.9330032177        2.3715702389        0.0896989946
 H         -2.3302571211        3.1869722761       -0.5857976020
 C         -0.6808767595        3.0942970504       -1.9245778145
 H         -1.0994964793        3.8783937920       -2.5598764422
 H         -1.0007957207        2.1294162856       -2.3238281890
 C          0.8487516687        3.1627644072       -2.0147628304
 H          1.1868922306        4.1896919602       -1.8757955043
 H          1.1466186608        2.8274784688       -3.0116240452
 H          0.2728542841        5.2257689600        1.9105892605
 H         -0.0573540648        3.4896013685        1.9375915751
 H          2.3537431214        4.1718183647        1.5975666247
 H          1.9005341767        4.8030025427        0.0037555995
 O          2.4296387122        1.8587205399        1.1286181326
 C          2.6800822217        0.5201984349        0.8517208215
 O          3.1694447674       -0.1023240511        1.8148942951
 O          1.4314136262        0.4512830910       -2.5408176925
 C          2.5848226098       -1.4111140806       -0.8189938942
 C          1.2729821937       -2.1199632465       -0.5957124069
 C          0.6558293729       -2.8658945075       -1.5916606449
 C         -0.6130769107       -3.3875015068       -1.4004227340
 C         -1.3043594130       -3.1396430790       -0.2275610884
 C         -0.6876563713       -2.4059492125        0.7768579604
 C          0.6013600523       -1.9337196817        0.6056959522
 H          1.0656318283       -1.3562243294        1.3927270386
 N         -1.4506909825       -2.0317639130        1.9255413368
 S         -1.9545438070       -0.4241044063        1.7479077831
 O         -0.8299638255        0.4723649580        1.5841579931
 O         -2.8056774525       -0.1472705525        2.8849169312
 C         -2.9126444601       -0.4978787186        0.2536207819
 C         -4.2519412438       -0.8242343384        0.3359846668
 C         -4.9878355506       -0.9295010185       -0.8334392398
 C         -4.3725856430       -0.7143677637       -2.0576200648
 C         -3.0261156550       -0.3896771287       -2.1226483700
 C         -2.2848492356       -0.2803227287       -0.9570988295
 H         -1.2339361580       -0.0330661808       -0.9735233791
 H         -2.5417012896       -0.2262823114       -3.0722608678
 H         -4.9438323375       -0.8001225955       -2.9684311613
 H         -6.0349404580       -1.1817214818       -0.7872829479
 H         -4.6837543594       -0.9807289369        1.3107389166
 H         -0.9140550305       -2.0889223111        2.7821001739
 H         -2.3128406127       -3.4911482636       -0.0835069851
 H         -1.0807591863       -3.9615523765       -2.1848679593
 H          1.1645716393       -3.0078754512       -2.5335812320
 H          2.7702523713       -1.3966588297       -1.9050647175
 C          3.7717835597       -2.0909095765       -0.1585269350
 C          3.6289952312       -3.1546948376        0.8847061862
 C          4.0881549121       -3.5188719310       -0.4934077937
 H          5.1200086726       -3.7995368815       -0.6386431296
 H          3.3905734035       -4.0461818318       -1.1263902159
 H          4.3429504099       -3.1585425196        1.6940835520
 H          2.6343625819       -3.4458133252        1.1854194119
 H          4.6138571503       -1.4172890853       -0.0418490383
