  62
        -98.94092502
 C         -1.4685135964       -1.1917972260        0.0482616197
 C         -2.5183338163       -0.7399455040        0.8753353259
 C         -3.1550220740        0.5386308785        0.5079796540
 C         -2.6787094070        1.2155633738       -0.5541112977
 C         -3.1897120966        2.5086114536       -1.1307695396
 C         -4.4819277567        2.3253265175       -1.9455162272
 C         -5.5116430281        1.3866604949       -1.3210065952
 H         -5.0484191553        0.4142449187       -1.1439698498
 H         -6.3110547104        1.2376025921       -2.0514633283
 C         -6.1499824428        1.8878421541       -0.0279619319
 H         -6.8994943872        1.1513235612        0.2725607719
 H         -6.6687635984        2.8284262747       -0.2264109567
 C         -5.1962730986        2.1034736162        1.1480448968
 H         -5.8093871406        2.2507779588        2.0422527638
 H         -4.6167715823        3.0137319844        1.0185135044
 C         -4.2713410742        0.9275619080        1.4480433487
 H         -4.8754717098        0.0231932727        1.5847639840
 H         -3.7919358157        1.1038424628        2.4194763762
 H         -4.2076373630        1.9146930333       -2.9200956109
 H         -4.9302435695        3.3069479154       -2.1067805086
 H         -2.4071814490        2.8860868005       -1.7928717654
 H         -3.3252029931        3.2381318547       -0.3374786244
 O         -1.6420780977        0.7550837176       -1.3079002612
 C         -0.9971470657       -0.4301333045       -1.0210492111
 O         -0.0474676349       -0.7022560746       -1.7806375489
 O         -2.9162564839       -1.3794070299        1.8897679196
 C         -0.7666116718       -2.4973549234        0.3796291410
 C          0.7025848673       -2.2273805765        0.5844414635
 C          1.7163450009       -2.9830532055        0.0099365322
 C          3.0432728408       -2.6202442573        0.1688586762
 C          3.3852437910       -1.4862410219        0.8828981680
 C          2.3791985367       -0.7405327717        1.4813436172
 C          1.0575951124       -1.1270854482        1.3559029885
 H          0.2817453243       -0.5266739963        1.8159635508
 N          2.7263495237        0.4808559942        2.1341403978
 S          2.4427907629        1.7807195390        1.0868731125
 O          2.8942201382        2.9603581417        1.7960250789
 O          1.0607575065        1.8183733721        0.6547606461
 C          3.5356358184        1.4137669105       -0.2636830685
 C          4.8569883453        1.8029980921       -0.1553709628
 C          5.7374178061        1.4730068188       -1.1725138298
 C          5.2834159031        0.7574418686       -2.2707254323
 C          3.9541432764        0.3746346124       -2.3620388518
 C          3.0649237806        0.7022300417       -1.3494639904
 H          2.0260246216        0.4098210934       -1.3927298581
 H          3.5964208763       -0.1844772337       -3.2116793347
 H          5.9689709967        0.4953140832       -3.0611690140
 H          6.7716018044        1.7698565139       -1.1048713412
 H          5.1590188007        2.3581439889        0.7174603943
 H          2.1804727185        0.6400193047        2.9717968711
 H          4.4101710385       -1.1676469313        0.9798378976
 H          3.8176831051       -3.2139506510       -0.2911959354
 H          1.4646543040       -3.8489410569       -0.5803201847
 H         -1.2022148692       -2.8343259422        1.3322109482
 C         -1.0482798304       -3.5359978100       -0.6856461546
 C         -1.0504616517       -4.9945504651       -0.3399800700
 C         -2.3406031006       -4.2925926984       -0.6360414344
 H         -2.8475080275       -4.5084500226       -1.5645044617
 H         -3.0086304623       -4.0765083706        0.1850203797
 H         -0.6736057610       -5.6972566983       -1.0675256621
 H         -0.8462923835       -5.2657450838        0.6846634719
 H         -0.6798960602       -3.2381443117       -1.6610697372
