  62
        -98.93749460
 C         -1.9011093628       -1.2790167891       -0.2257848132
 C         -1.8330817400        0.0668600428        0.2018670051
 C         -3.0741368530        0.6355538465        0.7606208965
 C         -4.1681403879       -0.1405210637        0.8496743639
 C         -5.5352406235        0.2562802910        1.3343266874
 C         -6.4241354420        0.6906721945        0.1564951974
 C         -6.3149141918        2.1669794264       -0.2230595350
 H         -6.8888479492        2.3093594390       -1.1416869743
 H         -6.7862550686        2.7725083208        0.5540070208
 C         -4.8906035997        2.6811776375       -0.4477259109
 H         -4.3217227220        1.9475285594       -1.0216664331
 H         -4.9542361853        3.5872590534       -1.0533894889
 C         -4.1536445003        3.0081080146        0.8596887493
 H         -3.7383662086        4.0161821928        0.7982295487
 H         -4.8714947746        3.0205367337        1.6796392746
 C         -2.9886493943        2.0696428948        1.2072334655
 H         -2.8248774004        2.0891037060        2.2900028769
 H         -2.0698038112        2.4462743355        0.7471920751
 H         -6.1664493508        0.0685576684       -0.7046012891
 H         -7.4660365812        0.4826444394        0.4084737257
 H         -5.4673214138        1.0375929007        2.0854854747
 H         -5.9740011027       -0.6333911429        1.7911132984
 O         -4.1833240323       -1.4397036553        0.4402011232
 C         -3.0640422124       -2.0381808458       -0.1082660577
 O         -3.2235151777       -3.2305718077       -0.4409126776
 O         -0.7911157758        0.7656864688        0.1181690269
 C         -0.6804076753       -1.9399910595       -0.8376152427
 C          0.4968629731       -1.8698668129        0.1046474209
 C          0.3008009721       -2.1087520655        1.4619951722
 C          1.3552937020       -2.0500449760        2.3530870141
 C          2.6357103867       -1.7669030050        1.9103665808
 C          2.8460627077       -1.5404352045        0.5574925262
 C          1.7826455291       -1.5946205239       -0.3364465792
 H          1.9662114902       -1.4145107081       -1.3844710576
 N          4.1531172266       -1.2668854927        0.1014094459
 S          4.8835531678        0.1562566777        0.5984034271
 O          6.2002201927        0.1447970500        0.0027850607
 O          4.8302365906        0.2330690283        2.0353404273
 C          3.9068841047        1.4558478845       -0.1361713848
 C          4.4229678315        2.1645630166       -1.2036813516
 C          3.6356312674        3.1295861053       -1.8103232703
 C          2.3453134051        3.3544689270       -1.3537154904
 C          1.8399157304        2.6307458693       -0.2847313516
 C          2.6278374645        1.6744626689        0.3355638889
 H          2.2523670065        1.0987845879        1.1659011170
 H          0.8280760711        2.7737574468        0.0576365449
 H          1.7269466788        4.0964181070       -1.8344564923
 H          4.0253541756        3.6964461150       -2.6407085493
 H          5.4272429320        1.9484637183       -1.5310219069
 H          4.2518693537       -1.3520732448       -0.9010405602
 H          3.4663051423       -1.7003842508        2.5935735233
 H          1.1807930977       -2.2300381990        3.4033927645
 H         -0.6971476575       -2.3341281271        1.8136503673
 H         -0.9444789937       -2.9995770845       -0.9722827677
 C         -0.3972326461       -1.3316644917       -2.1969500226
 C          0.2026893436       -2.1602744471       -3.2922488034
 C         -1.2376264439       -1.7529045398       -3.3633755498
 H         -1.5294654113       -1.0065517202       -4.0868370613
 H         -1.9931890683       -2.5039199923       -3.1824360614
 H          0.8982117594       -1.6924319897       -3.9731089021
 H          0.4243058105       -3.1944708186       -3.0751207116
 H         -0.1185172204       -0.2857480418       -2.1323444784
