  62
        -98.94540612
 C          2.5418195892        0.3673164985        0.0951237955
 C          2.4534109533       -0.5820562570        1.1480239559
 C          2.3237076662       -1.9864198284        0.7544706458
 C          2.3213767778       -2.3114046536       -0.5504350255
 C          2.1645320847       -3.6949825923       -1.1188484221
 C          0.6982477934       -4.1342702395       -1.2400950975
 C          0.0192045883       -4.4988501521        0.0810303354
 H         -0.9093714732       -5.0152033396       -0.1705665009
 H          0.6465670902       -5.2016646957        0.6310593068
 C         -0.3162691879       -3.2931392099        0.9702963414
 H         -0.2991104222       -2.3833925547        0.3638706782
 H         -1.3349298595       -3.3996848318        1.3521016630
 C          0.6041208758       -3.1188963612        2.1794227437
 H          0.4726052089       -3.9617389432        2.8620402024
 H          0.3092379362       -2.2073401941        2.7054941875
 C          2.0940072345       -3.0010957506        1.8335198185
 H          2.6270408141       -2.6636234341        2.7258978093
 H          2.4899061689       -3.9709021635        1.5335454366
 H          0.1334516406       -3.3332272235       -1.7253665778
 H          0.6705406732       -5.0085019980       -1.8952710066
 H          2.6036472227       -3.6752148974       -2.1186890776
 H          2.7150199759       -4.4125004156       -0.5095276279
 O          2.4752063723       -1.3841980793       -1.5287244190
 C          2.5203029075       -0.0279069368       -1.2422705770
 O          2.5601157708        0.6876011817       -2.2666467207
 O          2.4739178852       -0.2609689399        2.3662930765
 C          2.4963947480        1.8287067564        0.5194404347
 C          1.0370617114        2.2138527439        0.5857724640
 C          0.4318942272        2.6006438935        1.7752582215
 C         -0.9358706612        2.8086290450        1.8373376062
 C         -1.7310289035        2.5977892632        0.7240687467
 C         -1.1308169767        2.2183704458       -0.4685235514
 C          0.2420047417        2.0642107132       -0.5421011756
 H          0.6905050299        1.7564772812       -1.4756608483
 N         -1.9519375823        1.8722628639       -1.5808211466
 S         -2.2783632712        0.2110055617       -1.5341682677
 O         -1.1029184804       -0.5581804100       -1.1882345456
 O         -2.8945364455       -0.1076196342       -2.8043118109
 C         -3.4801335205        0.1109884339       -0.2281593530
 C         -4.7808607958        0.4892402888       -0.4982981052
 C         -5.7122658011        0.4586716184        0.5271721738
 C         -5.3271869038        0.0567956705        1.7977515531
 C         -4.0169910203       -0.3195837913        2.0520319083
 C         -3.0803874947       -0.2917109125        1.0305350601
 H         -2.0501913791       -0.5730112758        1.1841139613
 H         -3.7172633201       -0.6303185942        3.0399914638
 H         -6.0522810831        0.0360757460        2.5959544404
 H         -6.7321000289        0.7496962103        0.3337970324
 H         -5.0321206223        0.7896485786       -1.5019518470
 H         -1.4951446143        2.0642365241       -2.4636985549
 H         -2.8014697769        2.7153173372        0.7693096173
 H         -1.3906624522        3.1075176737        2.7690105328
 H          1.0377649539        2.7055380355        2.6631032776
 H          2.8988707639        1.8537327707        1.5411240161
 C          3.2989171734        2.7816367712       -0.3388023414
 C          3.6937498793        4.1093109185        0.2339154920
 C          4.7312848740        3.0522558917        0.0071049032
 H          5.4372468940        3.1813815534       -0.7992556147
 H          5.1414345120        2.5462580191        0.8688069202
 H          3.6868774169        4.9710862844       -0.4154211581
 H          3.4024240344        4.3216607446        1.2512715233
 H          3.0431852483        2.7406953155       -1.3892402387
