  62
        -98.93907070
 C         -2.4727567001       -1.0160342503        0.3790314694
 C         -2.7316172502        0.1663343398        1.1226959593
 C         -4.0546680001        0.7728261398        0.9470545790
 C         -4.9537616100        0.1824516198        0.1393436089
 C         -6.3570511400        0.6567189698       -0.1240782814
 C         -6.4570086997        1.7342100497       -1.2124297315
 C         -5.9427941197        3.1162951398       -0.8079256015
 H         -6.2702082596        3.8176939897       -1.5778192516
 H         -6.4125946499        3.4179989699        0.1286722184
 C         -4.4163436798        3.2098661797       -0.6734916713
 H         -3.9518854297        2.3589622496       -1.1774784811
 H         -4.0604725496        4.1116069896       -1.1768562213
 C         -3.9080004300        3.2665652098        0.7673195488
 H         -2.8152054600        3.2927277397        0.7443768290
 H         -4.2568535800        4.1854866899        1.2438637687
 C         -4.3336648302        2.0748368499        1.6350146588
 H         -5.3906851202        2.1523335800        1.8889652187
 H         -3.7481635603        2.0953261500        2.5575459489
 H         -5.9161403496        1.3886748296       -2.0963324414
 H         -7.5113598397        1.8273180798       -1.4824693716
 H         -6.9237382800       -0.2174580302       -0.4513463814
 H         -6.7965067701        1.0300933699        0.8012132085
 O         -4.6806730400       -0.9633953903       -0.5346325210
 C         -3.4372148300       -1.5765196903       -0.4592007807
 O         -3.3490887600       -2.5941035604       -1.1741976906
 O         -1.8940348003        0.6864817798        1.9088720293
 C         -1.0952571602       -1.6318061304        0.5471375097
 C         -0.1594450200       -1.2502663905       -0.5756022902
 C         -0.4003583098       -1.6354951706       -1.8906835102
 C          0.4974791404       -1.3067151207       -2.8895501101
 C          1.6579305304       -0.6115540608       -2.5971066000
 C          1.9031296202       -0.2151466007       -1.2878055100
 C          0.9892452100       -0.5269790105       -0.2907095301
 H          1.1875392699       -0.2016161505        0.7204238299
 N          3.0604148902        0.5073956293       -0.9583326499
 S          3.7769789099        0.2177640894        0.5437904203
 O          3.7587778598       -1.1977387006        0.8350287804
 O          3.1661916398        1.0801319895        1.5241310701
 C          5.4452530600        0.7592117093        0.2220723105
 C          6.4041116800       -0.1757743708       -0.1196362293
 C          7.6923269101        0.2552085391       -0.3949891991
 C          7.9971499901        1.6064369091       -0.3279120992
 C          7.0241934801        2.5329513792        0.0171169006
 C          5.7345123600        2.1088733293        0.2952759704
 H          4.9485417800        2.7899154994        0.5775847002
 H          7.2658063602        3.5821699492        0.0717231805
 H          9.0002248302        1.9394170991       -0.5424635591
 H          8.4516329201       -0.4627883509       -0.6594423589
 H          6.1227762600       -1.2161304508       -0.1503166892
 H          3.7400164003        0.5301664992       -1.7062246798
 H          2.3648270805       -0.3713687109       -3.3767780199
 H          0.2985235205       -1.6090016708       -3.9068348501
 H         -1.2981205298       -2.1891159306       -2.1188216303
 H         -0.6940382803       -1.1862260803        1.4685065497
 C         -1.1096103103       -3.1396507803        0.7156637898
 C          0.1167900796       -3.8106905703        1.2554162701
 C         -1.1233355105       -3.7271979302        2.0929907999
 H         -1.6930855306       -4.6285154802        2.2624745999
 H         -1.1283907806       -3.0428710801        2.9291881798
 H          0.3984458796       -4.7701909404        0.8494120002
 H          0.9570119196       -3.1830168604        1.5168070101
 H         -1.6693040202       -3.6544603904       -0.0541285402
