  62
        -98.94520137
 C          2.2581013931        0.7409510176       -0.0265827109
 C          3.2487511481        0.6528650902        0.9845324982
 C          4.1101067653       -0.5328502153        0.9413059466
 C          3.8982466745       -1.4761340214        0.0057655096
 C          4.6721732733       -2.7568595928       -0.1513897209
 C          5.9753915070       -2.6045288589       -0.9481070127
 C          7.1059484064       -1.8813676702       -0.2149032740
 H          8.0162905694       -2.0390120095       -0.7966532987
 H          7.2587571642       -2.3442405666        0.7604707881
 C          6.8858082637       -0.3719740797       -0.0424437072
 H          6.1082908654       -0.0363456531       -0.7325344699
 H          7.8010654844        0.1619664416       -0.3075765965
 C          6.5065089026        0.0556635342        1.3753500716
 H          6.3389038085        1.1355961670        1.3739606754
 H          7.3341324376       -0.1560489288        2.0558103623
 C          5.2413491804       -0.6193585562        1.9210469453
 H          4.9353198884       -0.0933766950        2.8285591259
 H          5.4479032475       -1.6594104540        2.1723054346
 H          5.7541828955       -2.0831850787       -1.8823534458
 H          6.3201392966       -3.6094612621       -1.2025046690
 H          4.0193545058       -3.4500212684       -0.6865483748
 H          4.8913766545       -3.1755657955        0.8312642689
 O          2.9108212629       -1.3754566188       -0.9227551338
 C          2.0797524524       -0.2648100373       -0.9764619477
 O          1.2483106469       -0.3044380082       -1.9049000498
 O          3.4044433663        1.5252164545        1.8792479330
 C          1.3475962762        1.9586148062       -0.0245119072
 C         -0.0343336673        1.5100900494        0.3804367214
 C         -0.3326045606        1.3607498254        1.7322299182
 C         -1.5658829599        0.8837870433        2.1338907053
 C         -2.5241196045        0.5351024714        1.1974774779
 C         -2.2290882335        0.6625035437       -0.1525830746
 C         -0.9983380307        1.1657099448       -0.5538503944
 H         -0.7785986229        1.2468943013       -1.6065130195
 N         -3.1888868134        0.2978433866       -1.1126576751
 S         -3.9816811236       -1.1694870679       -0.9241455118
 O         -3.1770616292       -2.1319818665       -0.2072960347
 O         -4.4037199235       -1.5462796879       -2.2559259249
 C         -5.4225576462       -0.7416160776        0.0334200881
 C         -5.7243838588       -1.4496489798        1.1801370619
 C         -6.8563305766       -1.1051571166        1.9027443660
 C         -7.6627401212       -0.0648624361        1.4675363032
 C         -7.3474451050        0.6347092755        0.3121194828
 C         -6.2183309856        0.2944306925       -0.4153654088
 H         -5.9397606596        0.8105600470       -1.3187572294
 H         -7.9767601575        1.4432910259       -0.0231243717
 H         -8.5419697461        0.2022024180        2.0322572092
 H         -7.1027542857       -1.6484769734        2.8008365843
 H         -5.0643018511       -2.2467590464        1.4837955808
 H         -2.8611581372        0.4023461248       -2.0625421755
 H         -3.4831754013        0.1496376559        1.5025933948
 H         -1.7843579261        0.7776599695        3.1856339818
 H          0.4237379453        1.6100561094        2.4633123124
 H          1.7398906890        2.6100389710        0.7679220753
 C          1.3905064726        2.7106021541       -1.3379949438
 C          0.8391768364        4.1027128849       -1.4020492574
 C          2.3184266468        3.8779909629       -1.4821847937
 H          2.8136706138        4.0271062769       -2.4300472256
 H          2.9235212004        4.1435635515       -0.6277969564
 H          0.3164370229        4.4101095650       -2.2947944102
 H          0.4383162080        4.5197396525       -0.4907775117
 H          1.2636338874        2.0732467542       -2.2045984524
