  62
        -98.93044253
 C         -2.4371708810       -0.9187029254        0.5224213293
 C         -2.8458610990        0.3385518592        1.0324443123
 C         -4.2515405021        0.7264571899        0.8269114943
 C         -5.0741432021       -0.1127624128        0.1708379278
 C         -6.5512380832       -0.0158623008       -0.1496308825
 C         -7.2935215715        1.3110813730       -0.0145929152
 C         -6.8699878735        2.3855198016       -1.0155399907
 H         -7.1995375881        2.0808653872       -2.0120090990
 H         -7.3895214281        3.3121596050       -0.7621306661
 C         -5.3704547925        2.6619586586       -1.0920799707
 H         -4.8487990092        1.7681541484       -1.4404798087
 H         -5.2117764603        3.4398363078       -1.8439239263
 C         -4.7246285468        3.1361608809        0.2084264109
 H         -5.2584895727        4.0097361640        0.5876099574
 H         -3.7017611567        3.4441052952       -0.0253574046
 C         -4.6438082607        2.0857710176        1.3297753705
 H         -3.8566770505        2.3932716619        2.0245717823
 H         -5.5731888538        2.0340407960        1.8920801758
 H         -8.3507855258        1.0950078104       -0.1908765992
 H         -7.2142858067        1.6848304890        1.0019548631
 H         -6.6573980351       -0.3832143111       -1.1752079418
 H         -7.0424804856       -0.7541628661        0.4938099556
 O         -4.6383049957       -1.3158120466       -0.3004907095
 C         -3.3262114093       -1.7495947702       -0.1586483520
 O         -3.1140755307       -2.8601184976       -0.6764041030
 H          1.3940685326       -0.0466271810        0.9154330558
 C          1.1067012840       -0.2383628276       -0.1079732462
 C         -0.1035776376       -0.8552342564       -0.3862519781
 C         -0.4594751297       -1.0628472695       -1.7152333628
 C          0.3864153609       -0.6680560526       -2.7357495546
 C          1.6070289251       -0.0803541628       -2.4533706546
 C          1.9685339325        0.1375429241       -1.1291657459
 N          3.1924225982        0.7418521728       -0.8036520316
 S          3.9917571717        0.1870003037        0.5788997422
 O          3.8940900033       -1.2526079526        0.6560795041
 O          3.5078762723        0.9207773961        1.7210884838
 C          5.6656232628        0.6789927831        0.2125205495
 C          6.0400973039        1.9882139160        0.4500992276
 C          7.3317461536        2.3817798958        0.1383874496
 C          8.2218972619        1.4655953740       -0.4024729569
 C          7.8321471930        0.1547847673       -0.6328745425
 C          6.5412792896       -0.2454827361       -0.3249002070
 H          6.1964583542       -1.2554666259       -0.4784021659
 H          8.5275097995       -0.5558767103       -1.0496797226
 H          9.2267651459        1.7746996893       -0.6432473864
 H          7.6393398496        3.3991378368        0.3188797148
 H          5.3170657338        2.6613092546        0.8808044766
 H          3.8148745125        0.8270213070       -1.5955937810
 H          2.2714488692        0.2133384014       -3.2517694207
 H          0.0983069788       -0.8346563533       -3.7628975516
 H         -1.3986383704       -1.5473277048       -1.9373558609
 C         -0.9876990377       -1.3045223096        0.7487784798
 H         -0.6800216126       -0.7345446169        1.6412690067
 C         -0.7964161488       -2.7798346008        1.0733726316
 C         -0.2005283681       -3.7672236101        0.1204178601
 C          0.5781329345       -3.3284054171        1.3221398375
 H          0.7129179402       -4.0267585522        2.1346322389
 H          1.4230664180       -2.6724128154        1.1650309668
 H         -0.6213734441       -4.7607797558        0.1030718515
 H          0.1147667363       -3.4133369456       -0.8483352237
 H         -1.5891726684       -3.1541253771        1.7140261611
 O         -2.0635956848        1.1082026698        1.6547674556
