  62
        -98.93777619
 C         -1.7786634084       -0.4152705861        0.3814065194
 C         -2.9333446756       -0.3854330749        1.1949511427
 C         -4.2270771423       -0.5565846818        0.5110886446
 C         -4.2502495016       -0.7218589070       -0.8249770768
 C         -5.4036379541       -0.9551575984       -1.7786795752
 C         -6.8439692542       -0.6978161727       -1.3430740646
 C         -7.1804079350        0.7688444971       -1.0761219670
 H         -7.1640123150        1.3081096762       -2.0266330217
 H         -8.1981244029        0.8195623023       -0.6828705185
 C         -6.2412350387        1.4970672829       -0.1178308519
 H         -6.5968381765        2.5263842314       -0.0187518301
 H         -5.2398568386        1.5441423050       -0.5509409033
 C         -6.1479981415        0.9010416392        1.2855438644
 H         -7.1479658594        0.8116782717        1.7144208108
 H         -5.5811638254        1.6025794269        1.9038521457
 C         -5.4486644300       -0.4664761788        1.3796685155
 H         -5.1028578099       -0.5976467047        2.4092191170
 H         -6.1369574116       -1.2792802489        1.1608576862
 H         -7.0918768799       -1.3080668235       -0.4796457344
 H         -7.4817289428       -1.0374579330       -2.1637657962
 H         -5.3203860975       -2.0008611949       -2.0947837966
 H         -5.1837865183       -0.3486212581       -2.6629602654
 O         -3.1046670159       -0.7505395534       -1.5677868896
 C         -1.8517215330       -0.5926577880       -0.9988510192
 O         -0.9092665025       -0.6290158158       -1.8112648243
 O         -2.8888840739       -0.2235833128        2.4449410126
 C         -0.4159751269       -0.2388493931        1.0234209612
 C          0.2973170858        0.9556277864        0.4396792268
 C         -0.4094513007        2.1396877565        0.2432711374
 C          0.2087200700        3.2522491686       -0.2917724182
 C          1.5514084715        3.2158133903       -0.6253634406
 C          2.2707768430        2.0461282461       -0.4188171352
 C          1.6426971721        0.9250726837        0.1080072945
 H          2.2195016766        0.0283794396        0.2604145727
 N          3.6290657654        1.9719320396       -0.7576501509
 S          4.6992843221        1.1441827440        0.2237949558
 O          4.3310723359        1.2407095331        1.6169334636
 O          5.9989629192        1.6788132487       -0.1247818489
 C          4.6158154456       -0.5490672458       -0.3197161684
 C          4.7712788716       -1.5548113886        0.6136286067
 C          4.7576915687       -2.8740384667        0.1880330149
 C          4.5893237821       -3.1627853199       -1.1572418762
 C          4.4361319070       -2.1409284813       -2.0819597895
 C          4.4537536325       -0.8199233018       -1.6638039226
 H          4.3332762673       -0.0036700403       -2.3562344701
 H          4.3011113965       -2.3692265805       -3.1269973177
 H          4.5755815685       -4.1898586034       -1.4865126823
 H          4.8765387549       -3.6699969320        0.9061657525
 H          4.8874503913       -1.2853826294        1.6514513473
 H          4.0297092262        2.8268567425       -1.1147249783
 H          2.0368735180        4.0846423081       -1.0434184845
 H         -0.3564131241        4.1594072904       -0.4455503117
 H         -1.4568640567        2.1734790022        0.5110898999
 H         -0.6161310720       -0.0282674920        2.0852230180
 C          0.3773861881       -1.5251616431        0.9243752878
 C          1.3857061533       -1.8793168460        1.9748729754
 C          0.0896838754       -2.6272733634        1.8978389156
 H          0.1021896518       -3.6462563322        1.5418229304
 H         -0.6592294720       -2.4371573677        2.6528323226
 H          2.2880076048       -2.3862583845        1.6680379146
 H          1.5279061599       -1.1826591365        2.7875678580
 H          0.5875052156       -1.8043028541       -0.1023229867
