  62
        -98.94625856
 C         -2.3893554216       -0.5230099176       -0.0124035905
 C         -1.3958107486       -0.7234121093        0.9733433590
 C         -0.7085709828       -2.0202587334        0.9483222023
 C         -1.0487160181       -2.9228962445        0.0107508977
 C         -0.3465377055       -4.2283347467       -0.2310610315
 C          0.9606050296       -3.9694071522       -1.0093208454
 C          2.2352528355       -4.3066910375       -0.2348694759
 H          2.3602606955       -5.3917882289       -0.2098931570
 H          3.0727984710       -3.8881396388       -0.7976092913
 C          2.2958791038       -3.7912447114        1.2064288803
 H          3.3385232604       -3.8562565471        1.5245466208
 H          1.7279785894       -4.4581273006        1.8573747752
 C          1.8033836288       -2.3541414016        1.4210372599
 H          2.4641651588       -1.8687235099        2.1427908291
 H          1.8709708396       -1.7833228841        0.4937735745
 C          0.3680051446       -2.2493887474        1.9721068264
 H          0.1325900106       -3.1407168587        2.5601654156
 H          0.3114643711       -1.3858113685        2.6408520481
 H          0.9839782566       -2.9175038990       -1.3056663375
 H          0.9567797630       -4.5526854339       -1.9320909117
 H         -0.1390965856       -4.7205555013        0.7165589558
 H         -1.0173798575       -4.8589320603       -0.8152892197
 O         -2.0344213192       -2.7091523177       -0.8995677503
 C         -2.7054251034       -1.4983533555       -0.9548660591
 O         -3.5504872792       -1.4153045755       -1.8712167666
 H         -0.8691827819        0.6714974341       -1.6323774525
 C         -0.9126047648        1.6149179699       -1.1076928684
 C         -1.9939558363        1.8944411516       -0.2814343597
 C         -2.0322912765        3.1246181946        0.3626768159
 C         -0.9955362549        4.0293707214        0.2077636226
 C          0.1078096205        3.7196865301       -0.5665665427
 C          0.1485689704        2.4966379323       -1.2262255485
 N          1.2540700963        2.1194014080       -2.0164304030
 S          2.1055413290        0.7451158506       -1.5733738626
 O          3.1804777412        0.6483646875       -2.5380863251
 O          1.2190105188       -0.3870833084       -1.4971272959
 C          2.7936030187        1.1340249301        0.0264387045
 C          1.9725342040        1.1534237533        1.1359335921
 C          2.5178206460        1.5117904376        2.3596522407
 C          3.8602927347        1.8431636803        2.4542122729
 C          4.6702295986        1.8204168030        1.3285822217
 C          4.1326786131        1.4672951835        0.1018348955
 H          4.7222692096        1.4326854044       -0.8000773880
 H          5.7148762624        2.0766135747        1.4024993169
 H          4.2762821857        2.1196188926        3.4102462948
 H          1.8795126006        1.5263144896        3.2286335181
 H          0.9313988250        0.8847242425        1.0500492238
 H          1.9103924148        2.8701746089       -2.1828346077
 H          0.9302026165        4.4127660205       -0.6610285539
 H         -1.0377791082        4.9806089075        0.7158891249
 H         -2.8702105997        3.3714311647        0.9940330738
 C         -3.0598022900        0.8345642227       -0.1275700066
 H         -3.6590610893        0.8047276370       -1.0496693399
 C         -3.9817003193        1.0766019942        1.0497710477
 C         -5.2149906936        1.9123216826        0.8877661649
 C         -5.3319417723        0.4276869884        1.0530379680
 H         -5.7151127301        0.0380950758        1.9841224656
 H         -5.5951924166       -0.1672767488        0.1902553649
 H         -5.4135937658        2.3282606033       -0.0884990148
 H         -5.5233313475        2.5420776293        1.7086363738
 H         -3.4472659527        1.1245711152        1.9914590463
 O         -1.0853370203        0.1519490830        1.8253527404
