  62
        -98.94630379
 C         -1.3453013226       -1.2312720817        0.4905271049
 C         -1.6502766871       -0.4225888689       -0.6318128730
 C         -2.4196743709        0.7988578928       -0.3463202289
 C         -2.6895649661        1.1270485310        0.9296359718
 C         -3.4899077888        2.3223084406        1.3582677373
 C         -4.9776699339        1.9716662823        1.5002664492
 C         -5.5525796746        1.2246232862        0.2967261153
 H         -5.0815084746        0.2412857754        0.2294234408
 H         -6.6138321721        1.0587608184        0.4944607752
 C         -5.3901041762        1.9571698773       -1.0425659931
 H         -6.3339913708        1.8990932556       -1.5886772389
 H         -5.1848305452        3.0133650654       -0.8644661441
 C         -4.3098589238        1.3762919880       -1.9572204102
 H         -4.4324911491        1.8189324830       -2.9492044766
 H         -4.4593263261        0.2986199916       -2.0596155161
 C         -2.8598566634        1.6248744040       -1.5218248695
 H         -2.2093977250        1.3290325033       -2.3496123540
 H         -2.7156334054        2.6893157463       -1.3269595088
 H         -5.1030963775        1.3433426187        2.3852436443
 H         -5.5365833746        2.8957650068        1.6589739757
 H         -3.1128084130        2.6622905579        2.3245865668
 H         -3.3644917956        3.1202263978        0.6286708172
 O         -2.2886537358        0.3756194276        1.9879581024
 C         -1.6306933461       -0.8272830040        1.7948917038
 O         -1.3425294791       -1.4294616428        2.8507569778
 H          1.1807414094       -1.2300304119        1.7319947476
 C          1.5958383032       -1.5085234115        0.7710289016
 C          0.8098661004       -2.2377842880       -0.1141945244
 C          1.3473546258       -2.5890765710       -1.3440235332
 C          2.6368771073       -2.2081264203       -1.6778370914
 C          3.4134945779       -1.4774242909       -0.7978577775
 C          2.8853781493       -1.1292326265        0.4393459097
 N          3.6621425826       -0.3660900439        1.3371968019
 S          4.2002353254        1.1037979493        0.7364448979
 O          5.3665075236        0.8831363829       -0.0805432481
 O          4.3894388283        1.9499821861        1.8934730487
 C          2.8559556315        1.7032555403       -0.2711790380
 C          1.6848133522        2.0701270104        0.3615029814
 C          0.6133286763        2.4967737085       -0.4046408615
 C          0.7282898040        2.5412863616       -1.7853221987
 C          1.9085704911        2.1649560509       -2.4059097700
 C          2.9847178485        1.7390705277       -1.6441650542
 H          3.9203894656        1.4383019061       -2.0861682085
 H          1.9906621087        2.1971129697       -3.4802517213
 H         -0.1098853281        2.8691092343       -2.3789284219
 H         -0.3091502554        2.7805337903        0.0768864254
 H          1.6276278015        2.0277906868        1.4382394540
 H          3.2082634694       -0.2268434548        2.2290591058
 H          4.4148618958       -1.1647990681       -1.0460053512
 H          3.0410317596       -2.4819291099       -2.6402673978
 H          0.7535470503       -3.1481545648       -2.0474993091
 C         -0.6034708897       -2.5476928112        0.3154163880
 H         -0.5576309228       -3.0033410516        1.3147669872
 C         -1.3439682215       -3.4838115980       -0.6137661092
 C         -1.0625313854       -4.9543662614       -0.5600976508
 C         -2.3632993185       -4.4206189189       -0.0416315841
 H         -3.2627772881       -4.6121869954       -0.6073291509
 H         -2.5182182605       -4.3987116223        1.0276227829
 H         -1.0701481023       -5.5159158062       -1.4817512653
 H         -0.3330518528       -5.2972984056        0.1581090875
 H         -1.5623832727       -3.0400831284       -1.5770735281
 O         -1.3110028144       -0.7006844650       -1.8091073151
