  62
        -98.94844520
 C         -1.2296568794       -1.5122749338        0.5025683850
 C         -2.1793509535       -1.2168879058       -0.5046184417
 C         -3.2413025937       -0.2746254074       -0.1254717513
 C         -3.2538870185        0.2443244041        1.1156235464
 C         -4.2445592689        1.2561798721        1.6125930985
 C         -3.7317620972        2.6874794305        1.4018162284
 C         -3.2145855189        2.9630203015       -0.0105879609
 H         -2.9250470499        4.0160478324       -0.0475794252
 H         -2.3004590985        2.3865757226       -0.1770680957
 C         -4.2256206292        2.6714630583       -1.1285261760
 H         -4.1955500534        3.4945321233       -1.8457426408
 H         -5.2343270352        2.6385523115       -0.7143756792
 C         -3.9574230910        1.3869689333       -1.9151339255
 H         -4.5781202583        1.4039961768       -2.8151743791
 H         -2.9125101180        1.3690241576       -2.2369446032
 C         -4.2563401753        0.0767683727       -1.1756687258
 H         -5.2607944365        0.1141541007       -0.7493538994
 H         -4.2216575530       -0.7341953339       -1.9090922918
 H         -2.9114718124        2.8704999103        2.1001132328
 H         -4.5411962706        3.3817697832        1.6366916426
 H         -5.1900456765        1.1176962609        1.0917728850
 H         -4.3997855173        1.0905299699        2.6802751671
 O         -2.3276297444       -0.0667854480        2.0577700410
 C         -1.2751753906       -0.9181219639        1.7627574980
 O         -0.4570707301       -1.0682235338        2.6944829983
 H          0.4220434846        0.1721476173       -0.1953887287
 C          0.9459828898       -0.4287738898       -0.9218064044
 C          0.7913994761       -1.8072652298       -0.9067904974
 C          1.4517195511       -2.5554404382       -1.8736071604
 C          2.2308181522       -1.9270369470       -2.8301940350
 C          2.3886544772       -0.5524790573       -2.8336796377
 C          1.7357128180        0.2036179938       -1.8672376213
 N          1.8569107002        1.6006325459       -1.8190097301
 S          1.8826046515        2.3662396818       -0.3317248336
 O          0.5623987095        2.3980212495        0.2451420420
 O          2.4795469220        3.6559595269       -0.6077598161
 C          3.0023457541        1.3879587475        0.6546078356
 C          2.5423142498        0.5874272125        1.6794080569
 C          3.4508913269       -0.1967914511        2.3742055153
 C          4.7943841483       -0.1678630831        2.0367211068
 C          5.2432007737        0.6498053717        1.0100776019
 C          4.3405136253        1.4322499882        0.3103800601
 H          4.6508227185        2.0895154014       -0.4856185900
 H          6.2896847422        0.6760107902        0.7527039225
 H          5.4942080455       -0.7837509853        2.5791240642
 H          3.0906753324       -0.8282715502        3.1709375838
 H          1.4923708924        0.5725923377        1.9284321518
 H          2.5222754227        1.9984433923       -2.4650264371
 H          2.9992922203       -0.0674000927       -3.5794338820
 H          2.7300929918       -2.5185121601       -3.5824307084
 H          1.3492612462       -3.6282426225       -1.8831120586
 C         -0.0528655217       -2.4166168356        0.1883107239
 H          0.5604114285       -2.4455214838        1.1020853662
 C         -0.5224266032       -3.8219161697       -0.1269903754
 C          0.3255057371       -5.0029875183        0.2357449822
 C         -0.9282698763       -4.7166627405        1.0043782276
 H         -1.7803654514       -5.3655923675        0.8691312747
 H         -0.8376423041       -4.3197041089        2.0053722573
 H          0.3329575778       -5.8549940236       -0.4272617009
 H          1.2698537546       -4.8117877195        0.7226518482
 H         -1.1081895534       -3.8687812673       -1.0374624050
 O         -2.1416594635       -1.7092922123       -1.6626567931
