  62
        -98.94475702
 C         -1.7960443198       -0.3883325160        0.1630710962
 C         -2.9134318022       -0.4096321183        1.0412286216
 C         -4.0428802807        0.4538042440        0.6843153887
 C         -3.9642585176        1.2322471842       -0.4096497013
 C         -5.0152034240        2.1940353490       -0.8930091106
 C         -6.1147239154        1.5425487950       -1.7428062394
 C         -7.1038670254        0.6705068496       -0.9685087440
 H         -7.5034192948        1.2363438342       -0.1262971558
 H         -7.9366840370        0.4568511984       -1.6414630800
 C         -6.5200501506       -0.6583882165       -0.4687242790
 H         -7.2184980558       -1.4684982408       -0.6902297207
 H         -5.5960190651       -0.8762173178       -1.0091647279
 C         -6.2372967731       -0.7028930473        1.0330747927
 H         -5.7941958870       -1.6736064337        1.2694174865
 H         -7.1758721068       -0.6181444321        1.5852247059
 C         -5.2791227148        0.3881258581        1.5291172182
 H         -5.7832485100        1.3543482570        1.5413191109
 H         -4.9731648373        0.1396502557        2.5482606718
 H         -6.6734485921        2.3479308074       -2.2251877375
 H         -5.6428703305        0.9486215390       -2.5289994994
 H         -5.4658165559        2.7026250417       -0.0401477597
 H         -4.4992594814        2.9356090268       -1.5069343898
 O         -2.8707374824        1.2443925182       -1.2134668953
 C         -1.7744754699        0.4294668954       -0.9666237140
 O         -0.8749340098        0.5491963540       -1.8242454546
 H          0.8625656515        0.6881985697       -0.5222840373
 C          1.1806394903        0.4274532248        0.4761019819
 C          0.5009760930       -0.5638488615        1.1696967161
 C          0.9219916268       -0.8797026725        2.4559431691
 C          1.9962795044       -0.2212488686        3.0299033373
 C          2.6703487948        0.7671284102        2.3351101680
 C          2.2496768079        1.0954506570        1.0532448563
 N          2.9351622330        2.0969887798        0.3280900667
 S          4.5201234102        1.7136220530       -0.0629144115
 O          5.3220252448        1.7702444882        1.1329823382
 O          4.8949696369        2.6170665969       -1.1269081410
 C          4.4332952398        0.0366241945       -0.6627393699
 C          4.6626945270       -1.0093118131        0.2081607989
 C          4.5137339632       -2.3072103512       -0.2528768653
 C          4.1375836211       -2.5344379953       -1.5675710042
 C          3.9061909296       -1.4728007095       -2.4286501671
 C          4.0493669905       -0.1728519307       -1.9720466443
 H          3.8819900721        0.6793512892       -2.6115850960
 H          3.6098796466       -1.6519914021       -3.4499285633
 H          4.0277078446       -3.5461525763       -1.9260675475
 H          4.6878830407       -3.1357220074        0.4143140325
 H          4.9579423124       -0.7889491488        1.2206840661
 H          2.4431007150        2.3623621549       -0.5143535758
 H          3.5167607215        1.2831802931        2.7588676419
 H          2.3117814395       -0.4790497140        4.0293694795
 H          0.3947454494       -1.6417653731        3.0108980532
 C         -0.6402451060       -1.3083131145        0.5193360164
 H         -1.0517589968       -2.0031032084        1.2635765590
 C         -0.1262173801       -2.1146063670       -0.6588369801
 C          0.6349240044       -3.3775867134       -0.3958902160
 C         -0.7482267214       -3.4412885332       -0.9693778933
 H         -0.8690553154       -3.7232065046       -2.0045052273
 H         -1.5516007118       -3.7780684532       -0.3302496176
 H          1.4695738309       -3.6136017978       -1.0367411034
 H          0.7707229001       -3.6737974037        0.6328792980
 H          0.1860664807       -1.5026574169       -1.4948298553
 O         -2.9624257890       -1.1244742902        2.0769648280
