  62
        -98.93664036
 C          1.4563134497        0.7217815987       -0.2127199212
 C          2.7218055397        1.3474219087       -0.1963686722
 C          3.8942667797        0.4649978089       -0.0469341814
 C          3.6994314598       -0.8592519810        0.0890769903
 C          4.7271025398       -1.9504294007        0.2544777814
 C          5.8755283300       -1.6712489095        1.2365176008
 C          7.2272475599       -1.4674694004        0.5500429303
 H          8.0206454000       -1.7016500495        1.2634304704
 H          7.3097837797       -2.1796568614       -0.2736224188
 C          7.4821595198       -0.0559084510        0.0240678385
 H          7.6526996099        0.6183618700        0.8663161477
 H          8.4043176596       -0.0826671717       -0.5613709416
 C          6.3670806496        0.5304705179       -0.8441741719
 H          5.9692848194       -0.2266450329       -1.5188405109
 H          6.8062429795        1.3127185772       -1.4671547230
 C          5.2261812297        1.1646588289       -0.0346289325
 H          5.5406314300        1.3074551102        1.0035155373
 H          5.0141041397        2.1661741184       -0.4222033437
 H          5.6324066401       -0.8099373288        1.8568407598
 H          5.9627482302       -2.5325391987        1.9008510819
 H          4.1610632599       -2.8241840503        0.5847592826
 H          5.1333585596       -2.1964213219       -0.7296829784
 O          2.4556537498       -1.4192108610        0.0693091112
 C          1.3077937597       -0.6586498912       -0.0824418195
 O          0.2495391497       -1.3119686512       -0.0807793785
 O          2.8709628297        2.5962348486       -0.2994056137
 C          0.2104944797        1.5713312685       -0.3734102320
 C         -0.7324962901        1.3478222299        0.7824964885
 C         -0.2279317898        1.3096414615        2.0801378285
 C         -1.0634597796        1.0861896928        3.1566351089
 C         -2.4196656696        0.8868563525        2.9646208394
 C         -2.9366421699        0.9428953109        1.6766068195
 C         -2.0963447401        1.1862778196        0.5979870090
 H         -2.5275328503        1.2523824384       -0.3857741610
 N         -4.3069772999        0.7669868007        1.4513933000
 S         -4.8809137002        0.1525419789        0.0114552408
 O         -4.8456472805        1.1696781877       -1.0098224404
 O         -6.1966270502       -0.3510206607        0.3450945317
 C         -3.8100117803       -1.2018920616       -0.4343884078
 C         -3.2504551406       -1.2353325632       -1.6945263078
 C         -2.4340175506       -2.2996047136       -2.0387889267
 C         -2.1896697105       -3.3062107225       -1.1195128355
 C         -2.7621925902       -3.2604860909        0.1412780245
 C         -3.5820843301       -2.2007346305        0.4900083734
 H         -4.0430839699       -2.1420153993        1.4627946034
 H         -2.5645522100       -4.0440648100        0.8549619455
 H         -1.5436788705       -4.1277017828       -1.3855382147
 H         -1.9829927208       -2.3350254948       -3.0180684867
 H         -3.4590889007       -0.4267177440       -2.3775859988
 H         -4.8434677198        0.4571412016        2.2472609204
 H         -3.0716978095        0.6968988135        3.8032619698
 H         -0.6551834894        1.0555252440        4.1556822189
 H          0.8334914902        1.4508417216        2.2324994181
 H          0.5566680297        2.6154327485       -0.3437887633
 C         -0.4284498206        1.3040659068       -1.7205683415
 C         -1.2045731007        2.3779244360       -2.4205758726
 C          0.1363803391        1.9603530253       -2.9431342324
 H          0.1810138490        1.3924011242       -3.8601997117
 H          0.9708307892        2.6323162255       -2.8047083534
 H         -2.0890849209        2.1011153253       -2.9751335221
 H         -1.2818676307        3.3378331966       -1.9323531238
 H         -0.7720240106        0.2794904967       -1.8148823202
