  62
        -98.94118091
 C         -1.9006375367       -0.9139837152        0.2449368238
 C         -2.3134560330        0.0710622827        1.1759105817
 C         -2.5271423230        1.4194816380        0.6416348763
 C         -2.2616773748        1.6709850406       -0.6527165287
 C         -2.3856850130        3.0045584777       -1.3390964783
 C         -3.8054523563        3.3319437664       -1.8220046647
 C         -4.8034063266        3.6819762115       -0.7174008350
 H         -4.3827205613        4.4642906414       -0.0850488933
 H         -5.6881076289        4.0958677465       -1.2050013495
 C         -5.2306729368        2.4903366367        0.1507849701
 H         -6.3155638882        2.5011288272        0.2763892809
 H         -4.9762682907        1.5587737980       -0.3601323827
 C         -4.6133158339        2.4709405464        1.5492691414
 H         -4.9568455231        1.5699355461        2.0638680732
 H         -4.9622891137        3.3365497274        2.1163799656
 C         -3.0786857136        2.4663283433        1.5619838581
 H         -2.6953530896        3.4500976738        1.2907140285
 H         -2.7412318745        2.2276073898        2.5738054814
 H         -4.1813944536        2.4835625724       -2.3984076493
 H         -3.7295144444        4.1864081320       -2.4983055442
 H         -1.7224380607        2.9663601924       -2.2061231158
 H         -2.0343200579        3.7913796773       -0.6705688575
 O         -1.8177204072        0.7121296873       -1.5060430132
 C         -1.6208436412       -0.5959392164       -1.0858758567
 O         -1.2137509930       -1.3549872886       -1.9856206686
 O         -2.4885303486       -0.1659612811        2.4026071197
 C         -1.6203231949       -2.3104775055        0.7730708346
 C         -0.2568104190       -2.7486639690        0.3003065220
 C         -0.0053813766       -3.9362224395       -0.3723702813
 C          1.2735838515       -4.2292297296       -0.8146507188
 C          2.3160099855       -3.3447068764       -0.6127480093
 C          2.0754970852       -2.1573784086        0.0710921178
 C          0.8041005512       -1.8838992009        0.5421064159
 H          0.6256846196       -0.9562406856        1.0686004377
 N          3.1124353325       -1.2363768762        0.3097561058
 S          2.7244586925        0.4073900372        0.3257813031
 O          2.2180497827        0.7488308552        1.6330210860
 O          1.8819889219        0.7477518109       -0.7986417912
 C          4.3495155955        1.1133397434        0.1181784707
 C          5.1757585691        1.2136337127        1.2217158618
 C          6.4505557345        1.7322023981        1.0588723173
 C          6.8759816335        2.1385287090       -0.1973090956
 C          6.0351089493        2.0334321467       -1.2950677839
 C          4.7592596317        1.5141719275       -1.1393378298
 H          4.0666332513        1.4201300751       -1.9606638918
 H          6.3666276400        2.3531213382       -2.2698389464
 H          7.8681640573        2.5426744159       -0.3213500886
 H          7.1058463201        1.8180607337        1.9105275827
 H          4.7962316756        0.8939223630        2.1781007507
 H          3.9281312395       -1.4140826719       -0.2609967932
 H          3.3054486981       -3.5634037405       -0.9846838331
 H          1.4555515704       -5.1517338196       -1.3450209102
 H         -0.8135629516       -4.6185198634       -0.5784077878
 H         -1.5705809427       -2.1784297623        1.8680672735
 C         -2.7203768536       -3.3270262179        0.5099572705
 C         -4.1361205059       -2.8891414721        0.2854123443
 C         -3.3520219652       -3.4936485625       -0.8384281506
 H         -3.6107730438       -4.4912956176       -1.1620045385
 H         -3.0054880171       -2.8509053618       -1.6320365701
 H         -4.9298291741       -3.4682543551        0.7330638357
 H         -4.3308849226       -1.8265811519        0.2591394543
 H         -2.5875932605       -4.2287979953        1.0999443881
