  62
        -98.93482046
 C         -2.2445974552       -0.8274363061       -0.1147746002
 C         -3.5519255512       -1.1555257016        0.3093855023
 C         -4.6530278307       -0.3236720039       -0.2135447244
 C         -4.3567213723        0.6827064085       -1.0571360200
 C         -5.2975398669        1.6792398631       -1.6802811257
 C         -5.7447652213        2.7683522428       -0.6909215158
 C         -6.1113508273        2.2623968805        0.7020482149
 H         -6.2917156807        3.1351528991        1.3352774848
 H         -5.2583894540        1.7277379404        1.1241876715
 C         -7.3516093973        1.3742721390        0.7667896974
 H         -8.2114505945        1.9329877897        0.3903798766
 H         -7.5360188368        1.1513177601        1.8208114941
 C         -7.2663331504        0.0484085495        0.0083456910
 H         -7.3875616682        0.2009280682       -1.0606185464
 H         -8.1115623966       -0.5660893358        0.3319277506
 C         -6.0072135566       -0.7671122907        0.2862207319
 H         -6.1520020398       -1.7778059622       -0.1142648088
 H         -5.8980659641       -0.9001768980        1.3685397377
 H         -6.5938168884        3.3000217314       -1.1236355100
 H         -4.9221269167        3.4790319812       -0.5795593048
 H         -6.1538774964        1.1660793429       -2.1075500967
 H         -4.7523336718        2.1552156763       -2.4983049062
 O         -3.0766445258        0.9640122598       -1.4380364387
 C         -1.9947060149        0.2320462696       -0.9852196229
 O         -0.8921554320        0.6155560160       -1.4233142908
 O         -3.7972381075       -2.1022980170        1.1054360708
 C         -1.0762395238       -1.6516203723        0.3949417506
 C         -0.1003335789       -0.7560684191        1.1162766984
 C         -0.5668417044        0.0134889701        2.1798664957
 C          0.2798745671        0.8663337637        2.8591766802
 C          1.6082701320        0.9753519856        2.4862934760
 C          2.0875494619        0.2047307572        1.4343037963
 C          1.2368176355       -0.6652372474        0.7646583661
 H          1.6303534875       -1.2456876374       -0.0515323256
 N          3.4488165837        0.2682937409        1.0752536086
 S          3.8954919406        0.3791001018       -0.5507375611
 O          3.3912729421        1.6065252996       -1.1277200340
 O          3.5563785730       -0.8453764371       -1.2275165921
 C          5.6662686587        0.4830270401       -0.3564111814
 C          6.2930212134        1.7121639489       -0.4310704277
 C          7.6656128643        1.7777702012       -0.2486174556
 C          8.3837363016        0.6197436452        0.0077863853
 C          7.7409221124       -0.6073928510        0.0785205877
 C          6.3693318833       -0.6796948766       -0.1045851484
 H          5.8280809711       -1.6104951451       -0.0667461201
 H          8.3029606686       -1.5061632743        0.2749104598
 H          9.4514549193        0.6735687688        0.1503133102
 H          8.1682199444        2.7297984908       -0.3067102657
 H          5.6952225171        2.5845986090       -0.6411236376
 H          3.9322530745        0.9949550330        1.5887944904
 H          2.2687219999        1.6519466134        3.0078930076
 H         -0.0968836545        1.4594875186        3.6790429038
 H         -1.6090078509       -0.0631898074        2.4597751733
 H         -1.5090454225       -2.3507617459        1.1261163601
 C         -0.4570583018       -2.4497236646       -0.7319838568
 C          0.2732742472       -3.7240763924       -0.4350046734
 C         -1.0634621981       -3.7663286106       -1.1107534155
 H         -1.1070897644       -4.0312590350       -2.1565567783
 H         -1.9167073145       -4.1004113096       -0.5385737574
 H          1.1530108072       -3.9567779390       -1.0158541535
 H          0.3296201813       -4.0363285443        0.5968157341
 H         -0.0824144950       -1.8223832677       -1.5343403502
