  62
        -98.93597323
 C         -0.8457474090       -1.7349994005        0.3687480202
 C         -1.5581062995       -0.7552670406        1.1020621197
 C         -2.7577650298       -0.1723142214        0.4692101094
 C         -3.0892552495       -0.5706824421       -0.7726318204
 C         -4.2502465297       -0.1299097831       -1.6255062407
 C         -4.0438427204        1.2607915968       -2.2416780612
 C         -3.5468957110        2.3188136575       -1.2615136016
 H         -2.5858618509        2.0023543081       -0.8533728214
 H         -3.3765166115        3.2383949673       -1.8268264519
 C         -4.5071690813        2.6427853374       -0.1192304418
 H         -4.1034950918        3.5094218378        0.4095824779
 H         -5.4742666314        2.9337250467       -0.5349075620
 C         -4.7317229508        1.5287801877        0.9076599886
 H         -5.4561671303        0.8006019071        0.5517618089
 H         -5.1712122211        1.9900994478        1.7967590784
 C         -3.4630155204        0.8164305485        1.3658010990
 H         -3.6859495202        0.2655798588        2.2874185792
 H         -2.7101207708        1.5592876690        1.6506632188
 H         -4.9876799505        1.5825364661       -2.6856973314
 H         -3.3064720503        1.1711642069       -3.0431224311
 H         -4.3363144192       -0.8596659034       -2.4338291304
 H         -5.1712305897       -0.1623953833       -1.0510934607
 O         -2.3336083090       -1.4669027120       -1.4685571301
 C         -1.1951878887       -2.0544546812       -0.9440350897
 O         -0.6141560282       -2.8187069811       -1.7359763394
 O         -1.2103419698       -0.3734110099        2.2520028296
 C          0.3948366813       -2.3310697695        1.0106624305
 C          1.5708235613       -2.1274306693        0.0909840805
 C          2.2455465119       -3.1575119491       -0.5492468391
 C          3.2909420018       -2.8733199189       -1.4105621491
 C          3.6946918611       -1.5694612188       -1.6335327696
 C          3.0275411005       -0.5311224489       -0.9933710000
 C          1.9718067806       -0.8183851691       -0.1454061600
 H          1.4447200801       -0.0115232092        0.3433219497
 N          3.3931496498        0.8099395412       -1.1959700405
 S          3.4733724591        1.8275648418        0.1324855091
 O          4.3376897886        2.9087571521       -0.2924935913
 O          3.8901147994        1.1137746625        1.3172486194
 C          1.8255708488        2.4669228910        0.3388669287
 C          1.2069150385        3.0577716402       -0.7451655315
 C         -0.0553454918        3.6028432996       -0.5773195718
 C         -0.6720381018        3.5513485498        0.6640219481
 C         -0.0396549916        2.9513560305        1.7413271584
 C          1.2231191587        2.4045881411        1.5793703587
 H          1.7451784689        1.9211313317        2.3900148589
 H         -0.5222119016        2.8969862906        2.7042305884
 H         -1.6525540121        3.9824643893        0.7918830579
 H         -0.5559240720        4.0663451890       -1.4121679621
 H          1.7202930186        3.0828470801       -1.6920030815
 H          4.1807210997        0.9450597314       -1.8135443705
 H          4.5139862410       -1.3529920986       -2.3025902996
 H          3.8022956922       -3.6803258988       -1.9133968088
 H          1.9352606224       -4.1777554893       -0.3941176687
 H          0.5612045909       -1.7059936791        1.9043988302
 C          0.2472849620       -3.7585503394        1.5111436010
 C         -1.0715248877       -4.2573167799        2.0202612411
 C         -0.4910950673       -4.8248030801        0.7613958114
 H         -0.0967227368       -5.8303233999        0.7906153218
 H         -0.9393609874       -4.5600714807       -0.1824092888
 H         -1.0836132975       -4.8717087296        2.9079885613
 H         -1.9192022881       -3.5926461604        1.9352507708
 H          1.1267883522       -4.0781657687        2.0628653012
