  62
        -98.93955693
 C          2.1302531297        1.0131009071        0.0225855227
 C          2.8761816851        0.3596516182        1.0287821943
 C          3.6139143442       -0.8505957360        0.6257348484
 C          3.5273909184       -1.2821483186       -0.6466518868
 C          4.1229618765       -2.4957694737       -1.3300210377
 C          5.2390985052       -3.2987746109       -0.6667931759
 C          6.5700548438       -2.5584484134       -0.5386177429
 H          7.2557513836       -3.1864082312        0.0342611051
 H          6.9927113534       -2.4298756249       -1.5381905031
 C          6.4976779332       -1.1790735207        0.1114432994
 H          7.5099637567       -0.7666257402        0.1330303822
 H          5.8924550122       -0.5133545023       -0.5072749721
 C          5.9572041522       -1.1569124111        1.5397241075
 H          6.5299958840       -1.8481298550        2.1608833461
 H          6.1093818720       -0.1483774239        1.9332521502
 C          4.4623471171       -1.4895651852        1.6876400962
 H          4.1182059690       -1.0794894924        2.6417985086
 H          4.2965696900       -2.5640258661        1.7166413545
 H          4.9129535404       -3.6690976634        0.3006922204
 H          5.4083371636       -4.1746762622       -1.2990492249
 H          3.2796111495       -3.1682746829       -1.5244031142
 H          4.4667847443       -2.1459764835       -2.3086998522
 O          2.7656829402       -0.6338461896       -1.5771198928
 C          2.0564625281        0.5182488856       -1.2781898502
 O          1.4184709019        0.9918966794       -2.2366286825
 O          2.9151390519        0.7609332917        2.2240242653
 C          1.3489932838        2.2662372824        0.3745106412
 C         -0.1228661678        2.0306580825        0.1387077712
 C         -0.9356016710        2.8940404143       -0.5830234136
 C         -2.2734673489        2.5961829327       -0.7793337772
 C         -2.8304233536        1.4438907488       -0.2568013914
 C         -2.0279630107        0.5763725487        0.4731660412
 C         -0.6900347473        0.8779471903        0.6693010392
 H         -0.0644766908        0.1970343692        1.2344816725
 N         -2.5867970539       -0.5937236425        1.0209999674
 S         -3.4200460000       -1.6175255980       -0.0200199790
 O         -3.3365882639       -2.9255061022        0.5941150690
 O         -2.9335257619       -1.5122984087       -1.3761891199
 C         -5.1013500119       -1.0390690368        0.0778589262
 C         -5.7723336533       -0.6744416365       -1.0728312818
 C         -7.0832899989       -0.2344455096       -0.9728146005
 C         -7.6963461785       -0.1686231923        0.2690157490
 C         -7.0089178786       -0.5405853640        1.4149185401
 C         -5.6988233464       -0.9821935443        1.3219417659
 H         -5.1304354111       -1.2836609595        2.1858470116
 H         -7.4888209126       -0.4876346803        2.3788237514
 H         -8.7159212612        0.1749898598        0.3442252075
 H         -7.6188323984        0.0549358564       -1.8627067713
 H         -5.2519913311       -0.7369885991       -2.0154687932
 H         -1.9327227634       -1.1248805887        1.5784309254
 H         -3.8697089977        1.2057907010       -0.4140076884
 H         -2.8913676566        3.2720248871       -1.3505404927
 H         -0.5198731905        3.7946766289       -1.0035389706
 H          1.5031898235        2.4133788030        1.4539631912
 C          1.9032157006        3.4649360524       -0.3653100236
 C          1.7726610546        4.8387317345        0.2193587264
 C          3.1088681786        4.1616791413        0.1881362090
 H          3.8573590937        4.5228182529       -0.5011110779
 H          3.5158105457        3.7856976214        1.1155423287
 H          1.6053942415        5.6695322881       -0.4492129195
 H          1.2739338059        4.9305740831        1.1721952330
 H          1.8393426506        3.3547777583       -1.4420828673
