  62
        -98.93417524
 C          1.8330455268        1.2915298626       -0.1551171661
 C          2.1016512396       -0.0736630417       -0.4200067202
 C          3.3778044372       -0.5916863680        0.1016606343
 C          4.1824381934        0.2037866581        0.8268441152
 C          5.4800621044       -0.1825827793        1.4860306832
 C          6.6350115717       -0.5733880458        0.5437343067
 C          6.7507658053       -2.0790224236        0.2749849849
 H          7.8075161252       -2.3537840487        0.2675422117
 H          6.2933255239       -2.6198516603        1.1045088270
 C          6.1524807150       -2.5691862042       -1.0471655849
 H          6.8398470820       -2.3270172864       -1.8609785754
 H          6.0749861593       -3.6574377289       -0.9959116626
 C          4.7856424481       -1.9919888590       -1.4150381287
 H          4.3918338626       -2.5604856790       -2.2599101031
 H          4.9040227633       -0.9631802090       -1.7634200425
 C          3.7559860783       -1.9967169366       -0.2685476285
 H          2.8390084569       -2.4922364988       -0.5939441817
 H          4.1457269981       -2.5300926596        0.5972593769
 H          6.5422251790       -0.0242913190       -0.3929253680
 H          7.5579476478       -0.2417042700        1.0220745404
 H          5.7779481939        0.6895119228        2.0717825846
 H          5.2886937665       -1.0019165897        2.1829666647
 O          3.8700307868        1.5016798707        1.0927285603
 C          2.7133692243        2.0759870028        0.5968612184
 O          2.5778473716        3.2811442883        0.8887790733
 O          1.3279238373       -0.8460048022       -1.0431582106
 C          0.5920249718        2.0131718878       -0.6575219691
 C         -0.5878301089        1.7957191926        0.2539772290
 C         -1.3547363917        2.8659651684        0.6987682353
 C         -2.4515816132        2.6559840181        1.5172092258
 C         -2.8063278659        1.3770324342        1.9074264169
 C         -2.0450943173        0.3010938808        1.4688334795
 C         -0.9472382443        0.5139517239        0.6479429629
 H         -0.3650106267       -0.3277438019        0.3034351162
 N         -2.3959300743       -1.0097537737        1.8537477243
 S         -3.9288440762       -1.5352678594        1.4258950949
 O         -4.9043363239       -0.8353516018        2.2230561613
 O         -3.8989005158       -2.9727641486        1.5681989465
 C         -4.1006208320       -1.0822828547       -0.2895329655
 C         -3.6072252163       -1.9440234472       -1.2489511490
 C         -3.6735109774       -1.5723728874       -2.5818538168
 C         -4.2166334576       -0.3448171349       -2.9290536463
 C         -4.7046290820        0.5105531627       -1.9534356750
 C         -4.6484244689        0.1414839146       -0.6189179628
 H         -5.0233805942        0.7747273555        0.1679923087
 H         -5.1246103151        1.4648194999       -2.2270526696
 H         -4.2573332705       -0.0525516293       -3.9661569863
 H         -3.2937777251       -2.2361635759       -3.3417598826
 H         -3.1926594433       -2.8895728278       -0.9375686895
 H         -1.7126326894       -1.6953701339        1.5632538571
 H         -3.6599134629        1.1936917819        2.5399517968
 H         -3.0354898321        3.4974539962        1.8577723553
 H         -1.0783890669        3.8692624592        0.4091630062
 H          0.8492059005        3.0830020156       -0.6135317276
 C          0.2748695337        1.6880514611       -2.1125798181
 C         -0.8734246321        0.8327332785       -2.5456269931
 C         -0.9159363510        2.3106680977       -2.7801058840
 H         -0.8075232974        2.6823032134       -3.7875002181
 H         -1.5813270151        2.8927899306       -2.1607961793
 H         -0.7142785259        0.1738168356       -3.3850436509
 H         -1.5191678894        0.4177103732       -1.7883122268
 H          1.1798804491        1.6104593095       -2.7072543396
