  62
        -98.93567612
 C          2.3142130498        0.6711016749        0.8754150031
 C          3.4895691172        1.0244520822        0.1658955273
 C          4.6192268880        0.0875184465        0.2911403097
 C          4.4876675385       -1.0185846379        1.0436522833
 C          5.5361366745       -2.0805706989        1.2031447293
 C          5.3748626901       -3.1842999623        0.1484659262
 C          5.2258677521       -2.6576154526       -1.2789389162
 H          5.1505772227       -3.5247198667       -1.9387181028
 H          4.2835007497       -2.1105798662       -1.3595287352
 C          6.3775201413       -1.7567921142       -1.7467076080
 H          7.2464636028       -1.9032069127       -1.1042195855
 H          6.6669174002       -2.0551110974       -2.7565356717
 C          6.0343535412       -0.2671446715       -1.8031051535
 H          5.1098631137       -0.1256844735       -2.3683476038
 H          6.8323873620        0.2452466731       -2.3468392353
 C          5.8819090863        0.4340135711       -0.4474372266
 H          5.8324572540        1.5106113339       -0.6347190303
 H          6.7576731262        0.2320543563        0.1723317401
 H          4.4841331367       -3.7680861788        0.3925187303
 H          6.2412446854       -3.8457491856        0.2061433559
 H          6.5213392588       -1.6257022232        1.1205830787
 H          5.4305052227       -2.5206375932        2.1961765545
 O          3.3474869950       -1.3208366022        1.7178509269
 C          2.2414772630       -0.4920668328        1.6465207987
 O          1.2650748764       -0.8877671058        2.3173726367
 O          3.6116517418        2.0577062994       -0.5391926786
 C          1.0518221753        1.5174165711        0.8625053584
 C          0.1679890529        1.1572903713       -0.3046071925
 C          0.6708565055        1.0922421491       -1.6006508554
 C         -0.1580970757        0.7589739318       -2.6558063271
 C         -1.4970636275        0.4842304524       -2.4410293837
 C         -2.0120411508        0.5543519090       -1.1514627722
 C         -1.1766500778        0.8883144835       -0.0940346153
 H         -1.5817898104        0.9172049651        0.9062902355
 N         -3.3805997849        0.3309467555       -0.9219113746
 S         -3.8759453002       -0.4160602801        0.5090779872
 O         -3.7989717700        0.5417656696        1.5829912268
 O         -3.1627821836       -1.6599223881        0.6952136018
 C         -5.5856536116       -0.7321226827        0.1137155723
 C         -5.9746943657       -2.0000457835       -0.2741801106
 C         -7.3032854338       -2.2228032117       -0.6013109359
 C         -8.2140170754       -1.1789983906       -0.5385441137
 C         -7.8086097646        0.0883371400       -0.1464395723
 C         -6.4825381549        0.3174115072        0.1837643629
 H         -6.1235131986        1.2816010249        0.5035235723
 H         -8.5201840023        0.8965715496       -0.0956908868
 H         -9.2469762916       -1.3550565019       -0.7938747325
 H         -7.6220421670       -3.2076859259       -0.9025094349
 H         -5.2328792301       -2.7821872667       -0.3002525519
 H         -3.8429529789       -0.0829561434       -1.7206673178
 H         -2.1411281477        0.2210026912       -3.2663322819
 H          0.2435445189        0.7088228361       -3.6567674428
 H          1.7137555076        1.3123368951       -1.7700069439
 H          0.5083301805        1.2363955665        1.7797001583
 C          1.3342792939        3.0123999198        0.9482069894
 C          1.0686075544        3.9722094181       -0.1683677271
 C          0.1899672423        3.9780600956        1.0438289495
 H          0.2642133454        4.8010024559        1.7385319385
 H         -0.8066135896        3.5728056824        0.9443618580
 H          1.7705506349        4.7800071641       -0.3071417950
 H          0.6637787342        3.5845646390       -1.0895413884
 H          2.2004588891        3.2234205204        1.5670978816
