  62
        -98.94518250
 C         -1.7452294107       -1.3525271987       -0.2373589847
 C         -2.8767115552       -0.7620255094        0.3657854796
 C         -3.3108749083        0.5333450125       -0.1833536975
 C         -2.6215872059        1.0726519939       -1.2044578640
 C         -2.8323023378        2.4192189830       -1.8389594645
 C         -1.9319704340        3.4685746679       -1.1625034457
 C         -2.5569641440        4.1634383176        0.0457723658
 H         -1.7841746899        4.7965810560        0.4882031847
 H         -3.3692255856        4.8136979306       -0.2877817524
 C         -3.0895626306        3.2182581657        1.1255938436
 H         -2.3723030538        2.4081991966        1.2766502945
 H         -3.1453311544        3.7758260038        2.0630227253
 C         -4.4792010411        2.6497720461        0.8008008945
 H         -4.9095538218        3.2170327458       -0.0245135822
 H         -5.1388497561        2.8003568049        1.6580260878
 C         -4.5171548104        1.1500639626        0.4713524499
 H         -4.6500761036        0.5795431773        1.3961502126
 H         -5.3942513312        0.9449995719       -0.1518592826
 H         -1.0071377222        2.9735481140       -0.8517885925
 H         -1.6669710276        4.2334100650       -1.8958476444
 H         -2.5330803685        2.3236268027       -2.8847332038
 H         -3.8779528789        2.7102490223       -1.7970642994
 O         -1.5560567977        0.4538329611       -1.7793975901
 C         -1.0714438921       -0.7447742147       -1.2955289214
 O         -0.0610041249       -1.1723013866       -1.8882438268
 H         -0.1467556594       -0.4678250838        1.4901184399
 C          0.6061947558       -1.2242906834        1.3227391763
 C          0.2553495510       -2.4341628107        0.7373328962
 C          1.2479593768       -3.3887874262        0.5524240020
 C          2.5570773446       -3.1220692945        0.9161637855
 C          2.9098528242       -1.8933022011        1.4436835496
 C          1.9218403701       -0.9365100080        1.6422493239
 N          2.2205339739        0.3532629315        2.1352390637
 S          2.0089787711        1.6042041813        1.0331309194
 O          2.4468063400        2.7973963437        1.7265042011
 O          0.6545015639        1.6106759894        0.5484536104
 C          3.1707554017        1.2138903940       -0.2628359275
 C          2.8275268729        0.2950985471       -1.2340121885
 C          3.7848964620       -0.0699457359       -2.1693935613
 C          5.0558659460        0.4803141228       -2.1169262125
 C          5.3826943335        1.4035015881       -1.1345352204
 C          4.4345338499        1.7699375241       -0.1939926602
 H          4.6402875778        2.4842532939        0.5870745641
 H          6.3707096106        1.8332775699       -1.0965853374
 H          5.7946410196        0.1881080601       -2.8465110490
 H          3.5223634470       -0.7878269884       -2.9298606290
 H          1.8311803137       -0.1194864453       -1.2632791124
 H          3.1474250009        0.4279171407        2.5334456731
 H          3.9360603886       -1.6722965330        1.6963525201
 H          3.3164938901       -3.8737962417        0.7650580058
 H          0.9970436452       -4.3412395634        0.1147108853
 C         -1.1837007606       -2.6421887569        0.3316307660
 H         -1.7761884873       -2.8496598202        1.2356412706
 C         -1.3701484275       -3.7835753501       -0.6470609832
 C         -1.5870721756       -5.1819421060       -0.1526692787
 C         -2.7219331390       -4.4191791969       -0.7649810971
 H         -3.0727301026       -4.7076507241       -1.7444324868
 H         -3.5004154123       -4.0460656412       -0.1155013156
 H         -1.1607861098       -5.9993373102       -0.7144910584
 H         -1.6027796636       -5.3386845737        0.9153022142
 H         -0.8019370813       -3.6425028569       -1.5597493635
 O         -3.4889500795       -1.2875303905        1.3373900959
