  62
        -98.93435668
 C         -2.1657477281       -0.8355343296        0.2076725011
 C         -3.0191717480       -0.1191835408        1.0803920025
 C         -3.8961856272        0.9050402930        0.4804495697
 C         -3.7934017335        1.1475586017       -0.8394179610
 C         -4.5996288834        2.1030055867       -1.6782346067
 C         -6.0144683189        1.5799825061       -1.9750635321
 C         -6.7360333329        0.9615710633       -0.7804629803
 H         -6.1378628015        0.1375409963       -0.3870479068
 H         -7.6744822364        0.5349035543       -1.1441670720
 C         -7.0716136759        1.9303162845        0.3510169255
 H         -7.6583039499        1.3766845821        1.0886295554
 H         -7.7017285215        2.7325876607       -0.0392979300
 C         -5.8765288193        2.5585180447        1.0711715545
 H         -6.2545834572        3.0186305758        1.9888871144
 H         -5.4400396375        3.3606688263        0.4820765414
 C         -4.7960779324        1.5685361131        1.4952040994
 H         -5.2586912269        0.7557859094        2.0670596663
 H         -4.1231336723        2.0685548055        2.2028171980
 H         -5.9348850177        0.8124546493       -2.7487688982
 H         -6.6086758469        2.4027343532       -2.3760330097
 H         -4.0651947314        2.2165581568       -2.6240131264
 H         -4.6388082260        3.0778779806       -1.2012053051
 O         -2.9057012155        0.4818259885       -1.6307261882
 C         -2.0744099809       -0.5152185198       -1.1472435974
 O         -1.3227180345       -1.0084136413       -2.0072176029
 O         -3.0541562087       -0.3243453485        2.3247828306
 C         -1.2791149616       -1.9097916881        0.8096382051
 C          0.1467725349       -1.7357820210        0.3486667738
 C          0.8847529525       -2.7319624457       -0.2753477698
 C          2.1956638888       -2.4992130033       -0.6545793525
 C          2.7968743726       -1.2764129575       -0.4240443142
 C          2.0690277384       -0.2721718078        0.2014619381
 C          0.7606229478       -0.5117347764        0.5891805671
 H          0.1938713946        0.2722100264        1.0787241666
 N          2.6693043713        0.9810110846        0.4259450431
 S          4.1291519804        1.0091941205        1.2576231849
 O          4.2383964713       -0.1074728682        2.1680576475
 O          4.2023360632        2.3283466392        1.8477557789
 C          5.3607744958        0.8771864570       -0.0208198496
 C          6.2848889926       -0.1485207091        0.0173484770
 C          7.2417386203       -0.2254162046       -0.9827923494
 C          7.2578813820        0.7201334879       -1.9966540247
 C          6.3240461391        1.7455436093       -2.0189696443
 C          5.3656077024        1.8288859458       -1.0216723114
 H          4.6255391484        2.6114451878       -0.9998203969
 H          6.3394750972        2.4788845983       -2.8091233154
 H          8.0029383886        0.6583095819       -2.7740663617
 H          7.9689265580       -1.0212358783       -0.9670320535
 H          6.2300622576       -0.8632904259        0.8228518039
 H          2.0364237106        1.6683168376        0.8091068857
 H          3.8143276129       -1.0897145995       -0.7264405431
 H          2.7549518881       -3.2814347345       -1.1447124410
 H          0.4293147926       -3.6858532932       -0.4834933569
 H         -1.3042209471       -1.7043946134        1.8939099098
 C         -1.8052698098       -3.3260947379        0.6298517903
 C         -3.2675044769       -3.5890775016        0.4320817501
 C         -2.3042019904       -3.8355893247       -0.6879708415
 H         -2.0856645278       -4.8586482003       -0.9572407330
 H         -2.2954219510       -3.1521784672       -1.5221814739
 H         -3.7079701768       -4.4384011106        0.9325054165
 H         -3.9251615870       -2.7346433422        0.3621397334
 H         -1.2738007682       -4.0359244409        1.2565219715
