  62
        -98.93907199
 C         -1.7336448977       -1.1397550416        0.6217360212
 C         -1.8024612198       -0.1634680298       -0.4031137156
 C         -3.1273013162        0.0275721523       -1.0180228091
 C         -4.1735510164       -0.6957412927       -0.5821168056
 C         -5.5812982093       -0.5620545430       -1.0845972007
 C         -6.3723812237        0.4594958139       -0.2556890038
 C         -5.6453425744        1.7894232277       -0.0562802143
 H         -6.3097310989        2.4409823626        0.5154118098
 H         -4.7551736407        1.6226723837        0.5548111598
 C         -5.2380402201        2.4919539134       -1.3589453680
 H         -5.4892637797        3.5517020399       -1.2791010322
 H         -5.8099000971        2.0856757063       -2.1940614272
 C         -3.7448117909        2.4123849429       -1.6824985727
 H         -3.1615212210        2.7321830979       -0.8148224550
 H         -3.5337201250        3.1157746162       -2.4926724028
 C         -3.2300357560        1.0373741901       -2.1262586267
 H         -3.8514029280        0.6566449753       -2.9397451680
 H         -2.2120470610        1.1733555493       -2.5043197849
 H         -7.3297277714        0.6369879206       -0.7489151901
 H         -6.5712551835        0.0277229199        0.7278571593
 H         -5.5607732771       -0.2599590744       -2.1298743756
 H         -6.0685197502       -1.5354060053       -1.0060065626
 O         -4.0736672901       -1.6077354786        0.4182036903
 C         -2.8640750644       -1.8389524965        1.0531930530
 O         -2.9246772880       -2.6749162502        1.9764362612
 H          1.9743352315       -0.3671061181        0.4935089924
 C          1.4811598689        0.2357426014        1.2377526374
 C          0.2495904266       -0.1511285904        1.7435547398
 C         -0.3805931945        0.6712942544        2.6743828170
 C          0.2063163100        1.8500655181        3.0892873739
 C          1.4385544339        2.2292802237        2.5871552958
 C          2.0757262454        1.4199955875        1.6546225830
 N          3.3507799749        1.7632687579        1.1757048138
 S          3.7129318151        1.6885012012       -0.4588374694
 O          4.9269992091        2.4721760714       -0.5772800497
 O          2.6119666148        2.1143941323       -1.2883333125
 C          4.1196877353       -0.0157908229       -0.7656975010
 C          4.9421277593       -0.6746875755        0.1273955663
 C          5.3062391866       -1.9842044073       -0.1412260642
 C          4.8559972123       -2.6046992037       -1.2972007545
 C          4.0369590396       -1.9263707953       -2.1866148319
 C          3.6620529942       -0.6181012472       -1.9197993297
 H          3.0112542275       -0.0588044546       -2.5730391586
 H          3.6877947521       -2.4088657365       -3.0860930726
 H          5.1430476022       -3.6232132640       -1.5065159781
 H          5.9410682219       -2.5167324558        0.5484737860
 H          5.2752365139       -0.1578401736        1.0117511193
 H          3.7245963760        2.6138470761        1.5729526855
 H          1.9033978624        3.1484058397        2.9114909522
 H         -0.2964178432        2.4792528358        3.8085734639
 H         -1.3441487328        0.3717636263        3.0652102138
 C         -0.4359483252       -1.4376231673        1.3539671131
 H         -0.7483959824       -1.9382420505        2.2857001059
 C          0.4798889850       -2.4127957122        0.6303902124
 C         -0.0910232489       -3.5338713808       -0.1846346239
 C          0.6461323911       -2.4171592987       -0.8576927246
 H          1.6284738412       -2.6204569297       -1.2575692379
 H          0.0854921550       -1.6934962818       -1.4279712945
 H         -1.1654508014       -3.5780010702       -0.2892286797
 H          0.3820650803       -4.5023339450       -0.1269774095
 H          1.3618186753       -2.6479429810        1.2184868488
 O         -0.8207796632        0.5170695027       -0.7965472427
