  62
        -98.94324481
 C          1.1097858415       -0.6864405389       -0.9099313256
 C          1.7040531133       -0.7110089491        0.3767028510
 C          2.4055958623        0.5167843299        0.7832071072
 C          2.3542908817        1.6029989802       -0.0062978064
 C          3.0550357763        2.9014181714        0.2680532538
 C          4.4583080946        2.9198659152       -0.3548435982
 C          5.2912220093        1.6770375272       -0.0411046626
 H          4.8278668344        0.8085652206       -0.5147039817
 H          6.2689368757        1.8148569106       -0.5076359597
 C          5.4744880188        1.3967671579        1.4568923988
 H          6.5210524321        1.1452911989        1.6411258081
 H          5.2505958086        2.2956639807        2.0325032932
 C          4.6364025829        0.2335591404        1.9908509845
 H          4.9972889880       -0.0145902958        2.9925097598
 H          4.7887817275       -0.6465984665        1.3609530029
 C          3.1282269632        0.4929511359        2.1001225835
 H          2.6847479800       -0.3311105688        2.6673722185
 H          2.9494823060        1.4180180284        2.6528904844
 H          4.9810129463        3.8097002500        0.0005016160
 H          4.3538201369        2.9971004079       -1.4395607106
 H          3.1189570838        3.0507912736        1.3443860328
 H          2.4629421543        3.7101279901       -0.1642309015
 O          1.6802152729        1.6252864931       -1.1844763094
 C          1.0497547068        0.4868531334       -1.6643164964
 O          0.4684952151        0.6514334894       -2.7558456045
 O          1.6695131959       -1.7018167658        1.1512320274
 C          0.3450732301       -1.8816103939       -1.4592874789
 C         -0.6141653510       -2.3556544441       -0.3957042031
 C         -0.6406145729       -3.6376136063        0.1334958533
 C         -1.5201894408       -3.9458154033        1.1577610857
 C         -2.3693234424       -2.9884534636        1.6814226171
 C         -2.3560812052       -1.7031770257        1.1489699261
 C         -1.5058255870       -1.4112107849        0.0979442619
 H         -1.4890468297       -0.4138598426       -0.3152165807
 N         -3.2069506187       -0.7038550893        1.6411611755
 S         -2.7849797825        0.9112015471        1.5489536867
 O         -1.3667101453        1.1282493895        1.7174227084
 O         -3.6434775559        1.5522301016        2.5240068417
 C         -3.3139166641        1.3892211919       -0.0823232447
 C         -4.6269324559        1.1459722808       -0.4355342470
 C         -5.0571466925        1.5055325847       -1.7021721532
 C         -4.1715050542        2.0966736542       -2.5911443237
 C         -2.8579996331        2.3390964996       -2.2204742305
 C         -2.4242585782        1.9857398645       -0.9525078190
 H         -1.4045936550        2.1482828185       -0.6355329527
 H         -2.1598772102        2.7851544597       -2.9108120910
 H         -4.5036535707        2.3700131444       -3.5802051654
 H         -6.0779608366        1.3202615538       -1.9951879619
 H         -5.2823448501        0.6845554224        0.2839796324
 H         -3.6977712281       -0.9312300283        2.4929343530
 H         -3.0298983924       -3.2257449259        2.5013747830
 H         -1.5277657430       -4.9430256505        1.5713652568
 H          0.0471275882       -4.3838616229       -0.2290089887
 H         -0.2531500014       -1.4729517400       -2.2908084339
 C          1.2106806714       -2.9825064835       -2.0502079695
 C          2.5573440259       -2.6694867001       -2.6299996747
 C          2.4513200146       -3.4878471234       -1.3800710057
 H          2.6700427777       -4.5440401386       -1.4424946507
 H          2.7301737784       -3.0393622579       -0.4404049629
 H          2.8502136286       -3.1594743477       -3.5464304944
 H          2.9099113296       -1.6512412774       -2.5463261395
 H          0.6168076298       -3.7154799426       -2.5876793354
