  62
        -98.93691246
 C         -2.5360566353       -1.4424537314        0.1225592869
 C         -2.5270561225       -0.3782343112       -0.8107729194
 C         -3.5009088346        0.6974410491       -0.5690158990
 C         -4.3378101222        0.6226098627        0.4807143855
 C         -5.4168552607        1.6069818782        0.8461573345
 C         -4.9396575326        3.0106824638        1.2665881756
 C         -4.9090754375        4.0362595646        0.1266699530
 H         -5.6141458344        3.7252201539       -0.6450792903
 H         -5.2645877157        4.9955063645        0.5081782194
 C         -3.5376706744        4.2904459833       -0.5071031113
 H         -2.9537782726        4.9384649841        0.1506066635
 H         -3.6962283138        4.8305574800       -1.4431061340
 C         -2.6907885253        3.0491488287       -0.7906879001
 H         -1.8432906776        3.3470716253       -1.4123514573
 H         -2.2621665315        2.6736184933        0.1423279630
 C         -3.4499986079        1.8944515658       -1.4732329848
 H         -4.4543711129        2.2073133555       -1.7546060513
 H         -2.9192471239        1.5841365793       -2.3755605923
 H         -3.9596217599        2.9358433670        1.7374320156
 H         -5.6370463559        3.3672798370        2.0261826143
 H         -6.1098635375        1.6963796252        0.0067098421
 H         -5.9564890781        1.1502352654        1.6781530946
 O         -4.3219727509       -0.4249907453        1.3489706383
 C         -3.4141042713       -1.4587617723        1.2101999069
 O         -3.4916714139       -2.3296541604        2.0992882042
 H          0.3687818685       -1.4989810091       -1.5735503181
 C          0.6657326148       -1.5258773916       -0.5371396611
 C         -0.1869826711       -2.0748457299        0.4080450304
 C          0.2015802765       -2.0603457062        1.7445112525
 C          1.4144122209       -1.5132979319        2.1202048482
 C          2.2593398480       -0.9583882356        1.1744031408
 C          1.8719248397       -0.9520276739       -0.1582866192
 N          2.7123805995       -0.3697890091       -1.1243472824
 S          3.2875518983        1.1787487961       -0.8178723173
 O          2.3980515625        1.9222685355        0.0444774619
 O          3.5531626397        1.7520790119       -2.1194852186
 C          4.8397104190        0.8891061057        0.0078219933
 C          5.7660052762        0.0751623876       -0.6145937599
 C          6.9815027044       -0.1548439509        0.0095791575
 C          7.2506052187        0.4322212254        1.2370930498
 C          6.3121435877        1.2501998255        1.8471697350
 C          5.0935785698        1.4832610726        1.2283887361
 H          4.3311755105        2.1070042044        1.6676731408
 H          6.5230162411        1.7064300956        2.8010712828
 H          8.1973029178        0.2515269756        1.7212423649
 H          7.7138656856       -0.7902574897       -0.4617626452
 H          5.5189045549       -0.3584915020       -1.5690605916
 H          2.3324739848       -0.4213086560       -2.0593387630
 H          3.2001076374       -0.5177710759        1.4617010742
 H          1.7040634197       -1.5136901517        3.1601073083
 H         -0.4702464998       -2.4677642600        2.4872425633
 C         -1.5520939363       -2.6003249958        0.0351653894
 H         -1.8628554781       -3.3147506820        0.8086028460
 C         -1.5909864904       -3.2951241974       -1.3100082186
 C         -0.9391381938       -4.6365200039       -1.4543483196
 C         -2.4331116882       -4.5229628219       -1.4742549617
 H         -2.9505238164       -4.6699687949       -2.4104818392
 H         -2.9844572941       -4.8701165786       -0.6125576650
 H         -0.4750016542       -5.0603129630       -0.5766961584
 H         -0.4284544042       -4.8656138585       -2.3770473239
 H         -1.5444654065       -2.6154074790       -2.1509132791
 O         -1.7624536070       -0.3166701852       -1.8103345451
