  62
        -98.93695372
 C          1.9126491798        1.4747972384        0.4153573952
 C          1.6547197602        0.4816084578       -0.5580574685
 C          2.4146864647       -0.7827229167       -0.4358652494
 C          3.2441869823       -0.9484683341        0.6100701567
 C          4.0871549285       -2.1455278206        0.9646352869
 C          3.2623664312       -3.3048307245        1.5409916469
 C          2.0121046583       -3.6562548349        0.7397825457
 H          1.4911803797       -4.4529923809        1.2773027290
 H          1.3463360565       -2.7918414705        0.7135685542
 C          2.2752799142       -4.1404770051       -0.6843292065
 H          1.3274271276       -4.5098903094       -1.0810707731
 H          2.9709566635       -4.9817055609       -0.6538379528
 C          2.8161280003       -3.0900153961       -1.6594150023
 H          3.8915881433       -2.9681972226       -1.5566430479
 H          2.6459726494       -3.4669368991       -2.6717809892
 C          2.1311345825       -1.7298290398       -1.5763236155
 H          2.3681291117       -1.1653273121       -2.4859339146
 H          1.0440005012       -1.8638580935       -1.5973468973
 H          2.9506376479       -3.0317107777        2.5524281317
 H          3.9094080365       -4.1809531346        1.6142275172
 H          4.6580149292       -2.4743398692        0.1014966228
 H          4.7968433363       -1.8119816601        1.7253515193
 O          3.3999024050        0.0110630988        1.5696337331
 C          2.7552864797        1.2294317263        1.5008929392
 O          2.9965892601        1.9952237119        2.4566898190
 H         -0.4942402583        1.3470227815        1.7174082901
 C         -0.9849535484        1.8411906175        0.8868116195
 C         -0.2349156420        2.6663245112        0.0567941306
 C         -0.8728724864        3.2894248329       -1.0068925705
 C         -2.2243921719        3.0874330763       -1.2280206677
 C         -2.9667977484        2.2658862624       -0.4005661413
 C         -2.3357405347        1.6289116554        0.6612764912
 N         -3.0738628780        0.7915542993        1.5195970681
 S         -4.0263973319       -0.4256424243        0.8814680234
 O         -5.1075162665        0.1639842752        0.1330249243
 O         -4.4034430216       -1.2340983039        2.0189235955
 C         -2.9787862437       -1.3716715023       -0.2076595693
 C         -2.3545680428       -2.4963218961        0.2944782490
 C         -1.5413429956       -3.2425073900       -0.5419123879
 C         -1.3561183008       -2.8443766414       -1.8573419242
 C         -1.9773327491       -1.7038869660       -2.3420693315
 C         -2.8000575864       -0.9591735754       -1.5128222438
 H         -3.3075880185       -0.0754276245       -1.8615953233
 H         -1.8209408396       -1.3894342974       -3.3610940550
 H         -0.7289325988       -3.4293237731       -2.5123335106
 H         -1.0556427902       -4.1284315785       -0.1650267025
 H         -2.5329945349       -2.7756067365        1.3206595574
 H         -2.5311180735        0.4293313305        2.2901389504
 H         -4.0194442882        2.0993746717       -0.5634445870
 H         -2.7075852851        3.5772187968       -2.0600171347
 H         -0.3098262030        3.9164389093       -1.6780017667
 C          1.2313816478        2.8314384137        0.3730838186
 H          1.3084089567        3.2202416870        1.4025486965
 C          1.9301530158        3.8433862734       -0.5235348164
 C          3.4011604249        3.7499816924       -0.7957066890
 C          2.4179343938        3.4902277866       -1.8952162061
 H          2.3222577510        4.2268949103       -2.6794537714
 H          2.2728411132        2.4750576673       -2.2284679268
 H          3.9374868240        2.9112383629       -0.3757543814
 H          3.9752411631        4.6641332407       -0.8206034356
 H          1.5336888612        4.8449892158       -0.3881563458
 O          0.8320299020        0.6206301861       -1.4986259196
