  62
        -98.94021813
 C         -2.4893614116       -1.2577714211       -0.0857374723
 C         -2.3391942134       -0.0271969471       -0.7692284767
 C         -3.5763000185        0.7365879377       -0.9895820846
 C         -4.7482995578        0.2338132907       -0.5604870276
 C         -6.0702050845        0.9375790991       -0.6578706161
 C         -6.3451417782        1.7746814618        0.5996018997
 C         -5.1793231472        2.6733581031        1.0125320969
 H         -5.4979941267        3.2349921671        1.8932813352
 H         -4.3362753248        2.0488663594        1.3173818767
 C         -4.7145199084        3.6508984717       -0.0758950379
 H         -5.4897846392        3.7558068894       -0.8356523187
 H         -4.5668974476        4.6341585058        0.3755783690
 C         -3.3952984551        3.2688519818       -0.7499483519
 H         -2.6350659784        3.0719198938        0.0108099136
 H         -3.0525670905        4.1239722450       -1.3388678594
 C         -3.4540575159        2.0595211102       -1.6917455760
 H         -2.5077241446        2.0204449319       -2.2398347963
 H         -4.2638202132        2.1917240531       -2.4122504804
 H         -6.5620716716        1.0949683735        1.4267409199
 H         -7.2313592925        2.3858566116        0.4200062372
 H         -6.0720087517        1.5750758192       -1.5396996535
 H         -6.8539091541        0.1854745937       -0.7614615221
 O         -4.8546853637       -0.9649753067        0.0678064393
 C         -3.7321239192       -1.7311229444        0.3350124552
 O         -3.9669100742       -2.7938336881        0.9448242395
 O         -1.2315687162        0.4163002613       -1.1731845484
 C         -1.2676408923       -2.1035475216        0.2293954464
 C         -0.3104963764       -1.2933323546        1.0699705372
 C         -0.7772509561       -0.7550827325        2.2673256969
 C          0.0453957780        0.0178416259        3.0621970794
 C          1.3488635620        0.2761208297        2.6752791758
 C          1.8291122089       -0.2657689752        1.4893412436
 C          1.0032357710       -1.0558884860        0.6999120593
 H          1.3961867279       -1.4568775917       -0.2183594798
 N          3.1675470845       -0.0518427996        1.1083392096
 S          3.5493901296        0.2699518871       -0.5054990024
 O          2.8499098456        1.4480441160       -0.9674376284
 O          3.3814849663       -0.9316173173       -1.2816669913
 C          5.2883636152        0.6269355987       -0.3268706326
 C          5.7239120213        1.9378938373       -0.3552271768
 C          7.0749684395        2.1998732035       -0.1890782366
 C          7.9620788172        1.1519910424        0.0046581065
 C          7.5100219620       -0.1592366779        0.0303109436
 C          6.1609112542       -0.4277810209       -0.1364760632
 H          5.7647254452       -1.4296880529       -0.1317587998
 H          8.2033670068       -0.9712510971        0.1788864908
 H          9.0127949363        1.3583845042        0.1337995117
 H          7.4292421764        3.2178891044       -0.2116313738
 H          4.9981247015        2.7190163871       -0.5157934739
 H          3.6183651326        0.6358598561        1.6986226199
 H          1.9894823278        0.8915565270        3.2890023666
 H         -0.3319400876        0.4318882141        3.9853329837
 H         -1.8013931879       -0.9477426453        2.5591856423
 H         -1.6292408237       -2.9460738916        0.8370707825
 C         -0.6543356374       -2.6498735810       -1.0417092373
 C          0.1497642934       -3.9133179970       -1.0016811728
 C         -1.2083074682       -3.9087306470       -1.6351784338
 H         -1.2785957551       -3.9838859422       -2.7099524619
 H         -2.0212560404       -4.3878902653       -1.1088715076
 H          1.0176814867       -3.9885155351       -1.6394274535
 H          0.2607161050       -4.4029254204       -0.0459155900
 H         -0.3425425727       -1.8696534282       -1.7275999126
