  62
        -98.94645906
 C         -1.1919962595       -1.0999778796        0.5624343804
 C         -1.7166102299       -0.6905840995       -0.6875792494
 C         -2.5104793202        0.5481214703       -0.6690871191
 C         -2.6125795402        1.2520672600        0.4722150711
 C         -3.4483223805        2.4863268398        0.6479276414
 C         -4.8644253504        2.1308140193        1.1233853216
 C         -5.5358061102        1.0320864892        0.2992185515
 H         -4.9956802299        0.0941319494        0.4470474413
 H         -6.5403443501        0.8904949389        0.7038263117
 C         -5.6279169505        1.3316014995       -1.2036704684
 H         -6.6310122705        1.0748045093       -1.5507463483
 H         -5.4897397009        2.3991486996       -1.3785591582
 C         -4.6425118505        0.5436059599       -2.0688623887
 H         -4.9361946107        0.6654329500       -3.1149052086
 H         -4.7171128501       -0.5204407001       -1.8306679589
 C         -3.1709411806        0.9617430403       -1.9542319589
 H         -3.0833900409        2.0391702604       -2.1077489587
 H         -2.6206124005        0.4532086406       -2.7515245891
 H         -5.4755132206        3.0347863191        1.0933129919
 H         -4.8078201001        1.7937492391        2.1609800215
 H         -2.9744381806        3.1215489098        1.3979679415
 H         -3.5015995508        3.0249677899       -0.2963565385
 O         -1.9927438699        0.8871614600        1.6233246109
 C         -1.2835905296       -0.2968565298        1.7006517506
 O         -0.7787039993       -0.5214430799        2.8206006204
 O         -1.5494987799       -1.3214213193       -1.7624112096
 C         -0.4306979992       -2.4096075794        0.7054881801
 C          0.9190592507       -2.2485333989        0.0513944899
 C          1.2665540306       -2.8257138886       -1.1619946603
 C          2.5090402905       -2.5798075682       -1.7234211705
 C          3.4282950404       -1.7650073980       -1.0876560005
 C          3.0878971904       -1.1846427083        0.1279041197
 C          1.8434842906       -1.4263647188        0.6862533998
 H          1.5725244906       -0.9646010390        1.6276937600
 N          4.0160561603       -0.3356359982        0.7763198797
 S          4.2797844597        1.1365414920        0.0237475499
 O          4.8463070296        0.8944592024       -1.2776336303
 O          5.0838718697        1.9102574021        0.9412223599
 C          2.6618754095        1.8702755816       -0.1377816297
 C          1.8363207794        1.4547905716       -1.1637808296
 C          0.5619107293        1.9900083112       -1.2542955493
 C          0.1391077992        2.9280623609       -0.3254470191
 C          0.9769021792        3.3293382910        0.7031466108
 C          2.2491415894        2.7906318513        0.8044531405
 H          2.9342523895        3.0763797114        1.5866905204
 H          0.6412193592        4.0551935208        1.4263600610
 H         -0.8512265610        3.3468233307       -0.4046569089
 H         -0.0987930008        1.6650262312       -2.0421808093
 H          2.1977258195        0.7305077918       -1.8756147398
 H          3.7763507304       -0.1640883484        1.7435587397
 H          4.3921269402       -1.5511520577       -1.5200254906
 H          2.7648620804       -3.0304077679       -2.6704069906
 H          0.5590571607       -3.4539630287       -1.6768457603
 H         -0.2627396189       -2.5406176095        1.7835543600
 C         -1.2310476789       -3.5872611195        0.1937098300
 C         -0.8453961685       -4.9727585595        0.6134642497
 C         -2.0981443485       -4.3486392099        1.1489312800
 H         -3.0500957385       -4.7184292101        0.7984444701
 H         -2.1091439785       -4.0277503501        2.1807207201
 H         -0.9367960884       -5.7743440094       -0.1033208504
 H         -0.0040499183       -5.0749500194        1.2822927995
 H         -1.6079199391       -3.4460537095       -0.8111948399
