  62
        -98.93986769
 C         -1.8453913499       -0.6049175099       -0.0090335502
 C         -2.3578490400        0.7008631301        0.2047333093
 C         -3.7625546799        0.9226452300       -0.1601300810
 C         -4.4714407998       -0.0945794701       -0.6820022409
 C         -5.9265457897       -0.0309889302       -1.0436004713
 C         -6.8105703100       -0.4560254199        0.1373031487
 C         -6.4587262202        0.2372465104        1.4535725986
 H         -7.1656097204       -0.1167860794        2.2070635285
 H         -5.4636203703       -0.0830683995        1.7706000189
 C         -6.5002247002        1.7706358104        1.3946475682
 H         -7.0726456200        2.0929881102        0.5241408780
 H         -7.0204088004        2.1416738506        2.2802764780
 C         -5.1255286102        2.4417021604        1.3724546283
 H         -4.5138138604        2.0533942206        2.1908321485
 H         -5.2657783803        3.5115291005        1.5493380480
 C         -4.3321377200        2.2944570101        0.0678758185
 H         -3.4730482100        2.9698047901        0.1232090985
 H         -4.9535241898        2.5989141599       -0.7770090817
 H         -6.7034342900       -1.5338620599        0.2791661089
 H         -7.8512108199       -0.2484582199       -0.1182387116
 H         -6.1745952796        0.9831936098       -1.3506122416
 H         -6.1032830895       -0.7084033204       -1.8806634211
 O         -3.9442543597       -1.3244994401       -0.8950530305
 C         -2.6243894598       -1.6191240201       -0.5684982902
 O         -2.3000279998       -2.7917129001       -0.8262406398
 O         -1.6691441301        1.6385316803        0.6916333793
 C         -0.3989563400       -0.8396787298        0.3919141401
 C          0.5205296602       -0.5846332901       -0.7745887297
 C          0.3567399105       -1.2623482504       -1.9799200396
 C          1.2018228907       -1.0097173206       -3.0442124595
 C          2.2253181107       -0.0851943706       -2.9283089895
 C          2.3895547104        0.6059649797       -1.7334403696
 C          1.5403653802        0.3494049199       -0.6640258597
 H          1.6573832400        0.9158206702        0.2475092701
 N          3.4031535904        1.5606466297       -1.6037705696
 S          4.0946760501        1.9327738101       -0.1370378796
 O          3.2076609399        2.7466451403        0.6552205400
 O          5.3603512102        2.5402648200       -0.4897776994
 C          4.3900243299        0.3765358203        0.6853499409
 C          4.0590611496        0.2500326306        2.0192007508
 C          4.3255591195       -0.9456702093        2.6679974312
 C          4.9112285696       -1.9921931694        1.9726364816
 C          5.2358374699       -1.8507578898        0.6322185616
 C          4.9784665201       -0.6552734999       -0.0192316788
 H          5.2289902303       -0.5164979002       -1.0580814787
 H          5.6873228700       -2.6678335599        0.0932419919
 H          5.1111682895       -2.9237061693        2.4775940118
 H          4.0694108893       -1.0567063690        3.7094478411
 H          3.5926167295        1.0843797607        2.5188818805
 H          4.0481211406        1.6298843495       -2.3756818795
 H          2.8830106009        0.1129896392       -3.7606991094
 H          1.0652131009       -1.5411328909       -3.9739201494
 H         -0.4413505195       -1.9835172904       -2.0699480896
 H         -0.1905872202       -0.0626074396        1.1449343900
 C         -0.1694443502       -2.1903882697        1.0566336805
 C          0.6818467300       -3.2743826498        0.4727692810
 C          1.1693116597       -2.5009506595        1.6580939509
 H          1.2051960195       -2.9883092693        2.6202685810
 H          1.9595585097       -1.7832981195        1.4945866809
 H          0.3522604799       -4.2923502998        0.6131425711
 H          1.1556698702       -3.0983263700       -0.4793618090
 H         -1.0405594203       -2.5179599095        1.6146679104
