  62
        -98.94619605
 C         -1.1340133605       -1.3003227774       -0.0021360617
 C         -1.6154738500       -0.3966260680        0.9795535736
 C         -2.4222736873        0.7312408023        0.4967237802
 C         -2.6340476380        0.8641903285       -0.8250948179
 C         -3.4509319242        1.9528864346       -1.4575403656
 C         -4.9180563306        1.5312385379       -1.6174235506
 C         -5.5322842332        0.9467526058       -0.3453876190
 H         -5.0350108224        0.0022759553       -0.1130533691
 H         -6.5764830190        0.7147882765       -0.5656678990
 C         -5.4596999389        1.8723715657        0.8770146327
 H         -6.4284443369        1.8623182431        1.3809023020
 H         -5.2729582192        2.8972476242        0.5544359264
 C         -4.4126913145        1.4688948556        1.9166141347
 H         -4.5379025068        0.4132028377        2.1697074908
 H         -4.5970539053        2.0479014471        2.8253226681
 C         -2.9487553653        1.6987284924        1.5195954011
 H         -2.3392330049        1.5486251398        2.4151972567
 H         -2.8143475956        2.7282286424        1.1807400888
 H         -4.9770770558        0.7772138735       -2.4058885119
 H         -5.4940493191        2.4018179516       -1.9366548384
 H         -3.0297893370        2.1659452630       -2.4420530887
 H         -3.3835881804        2.8505093283       -0.8453221350
 O         -2.1557728142       -0.0144786081       -1.7395819661
 C         -1.3926570104       -1.1134940338       -1.3621219826
 O         -1.0306464854       -1.8186965163       -2.3235015000
 O         -1.3755047426       -0.5268629850        2.2103528088
 C         -0.2754290305       -2.4457021269        0.4974943619
 C          1.2027046383       -2.1258959627        0.4389589132
 C          2.0820826754       -2.7170464727        1.3412836197
 C          3.4344796746       -2.4345427890        1.2976362200
 C          3.9358149334       -1.5320751627        0.3756893869
 C          3.0666305412       -0.9320438679       -0.5259870883
 C          1.7151696222       -1.2478399702       -0.5023962853
 H          1.0672719579       -0.7884805032       -1.2318370477
 N          3.5245335462        0.0179348855       -1.4583613145
 S          2.7117924463        1.4826975235       -1.5282427338
 O          1.4410472592        1.3316984663       -2.1889631050
 O          3.6522818809        2.3863704042       -2.1560666337
 C          2.4845942375        1.9235352293        0.1838134436
 C          3.5537479925        2.4640722236        0.8722805297
 C          3.4187706591        2.7167364798        2.2274213863
 C          2.2305146810        2.4068986471        2.8727325013
 C          1.1669663227        1.8652118164        2.1681496926
 C          1.2915928609        1.6257146440        0.8089671660
 H          0.4789508444        1.2090090913        0.2343122147
 H          0.2452471285        1.6013782752        2.6626307225
 H          2.1293995701        2.5881088834        3.9310660181
 H          4.2408721040        3.1443324361        2.7783352985
 H          4.4593733321        2.6886760163        0.3323515303
 H          4.5220804437        0.1767523067       -1.4258981854
 H          4.9878418138       -1.2927051779        0.3529938519
 H          4.1043700546       -2.9052939118        2.0003769315
 H          1.6972119979       -3.3975507827        2.0848756282
 H         -0.5403665216       -2.5649897460        1.5580287737
 C         -0.5433412219       -3.7601217383       -0.2121631910
 C         -0.4216330021       -5.0545827190        0.5320059019
 C         -1.7727098924       -4.5448113951        0.1315910289
 H         -2.3047484970       -5.0405297959       -0.6661924171
 H         -2.4165300623       -4.1476648032        0.9030851540
 H         -0.0187144896       -5.9088937319        0.0103182279
 H         -0.1641423722       -5.0158785269        1.5791750922
 H         -0.2427840549       -3.7463996951       -1.2523497180
