  62
        -98.94628208
 C         -1.5379066942       -1.4696117844       -0.0749543394
 C         -1.5069510712       -0.1074012460        0.3113635638
 C         -2.7990333922        0.4683945463        0.7053526146
 C         -3.9012009640       -0.3027228603        0.7143408644
 C         -5.2847843386        0.1380719586        1.1093966218
 C         -6.0662701642        0.8269064157       -0.0180078386
 C         -5.5932786402        2.2376691617       -0.3715250096
 H         -6.3588777856        2.6800061554       -1.0122100997
 H         -5.5415489460        2.8398574084        0.5360202377
 C         -4.2456427601        2.2887816455       -1.1050649847
 H         -4.0117855513        1.2992567030       -1.5046034301
 H         -4.3217553207        2.9677138569       -1.9574883158
 C         -3.0734236444        2.7654440262       -0.2470920743
 H         -2.1650924987        2.7148991051       -0.8520158493
 H         -3.2331186151        3.8062157397        0.0431098364
 C         -2.8408456149        1.9330327724        1.0202020532
 H         -3.6145781952        2.1438234854        1.7579586699
 H         -1.8687911859        2.2060222296        1.4380458427
 H         -6.0252127696        0.1948509094       -0.9082122218
 H         -7.1102649606        0.8855873943        0.2987300964
 H         -5.8271756284       -0.7634037519        1.4026790467
 H         -5.2253832844        0.8031906797        1.9713984162
 O         -3.8786123879       -1.6200477711        0.3738238291
 C         -2.7057208494       -2.2295140742       -0.0456217403
 O         -2.8303186130       -3.4342490544       -0.3480693852
 O         -0.4616187409        0.5891060130        0.3288307937
 C         -0.2566254001       -2.1366298256       -0.5419332768
 C          0.8157188399       -1.9517165040        0.5029544604
 C          0.5516126863       -2.3450533513        1.8129524684
 C          1.4911151583       -2.1617346674        2.8081821607
 C          2.7091375574       -1.5688002617        2.5230335074
 C          2.9865157968       -1.1844433300        1.2173787911
 C          2.0496234859       -1.3927454747        0.2140520247
 H          2.3016408811       -1.1041486245       -0.7915875752
 N          4.2146818293       -0.5941259037        0.8926026813
 S          4.3363997116        0.5180333236       -0.3457541929
 O          4.3153929704       -0.1566336536       -1.6203596588
 O          5.5557137676        1.2404827503       -0.0454193611
 C          2.9443278295        1.6240368691       -0.2093082557
 C          2.1677631143        1.8734789458       -1.3208791544
 C          1.1184316533        2.7708332436       -1.2190057497
 C          0.8624621621        3.3978692199       -0.0113621926
 C          1.6506431663        3.1354520007        1.0971530959
 C          2.7043583050        2.2429356966        1.0001912389
 H          3.3364333571        2.0241353376        1.8458724139
 H          1.4421847036        3.6190728686        2.0383235799
 H          0.0378390488        4.0890377176        0.0681530921
 H          0.4983643003        2.9695287219       -2.0793943055
 H          2.3951668063        1.3569262479       -2.2405568846
 H          4.8015782767       -0.3554538164        1.6776834391
 H          3.4384343364       -1.4090507616        3.3023863552
 H          1.2704955450       -2.4705412210        3.8190141579
 H         -0.4083701142       -2.7895448841        2.0397818150
 H         -0.4778522072       -3.2099416626       -0.6318465886
 C          0.1335374381       -1.5988110670       -1.9030075467
 C          0.9752066861       -2.4229598251       -2.8287788279
 C         -0.4750125596       -2.1980384475       -3.1332839586
 H         -0.7362020485       -1.5438060946       -3.9515820987
 H         -1.1611401668       -3.0214783508       -2.9969415078
 H          1.7177065790       -1.9243463116       -3.4341464510
 H          1.2759073139       -3.4031022121       -2.4903138379
 H          0.2873867118       -0.5251518654       -1.8946979108
