  62
        -98.93726432
 C         -1.1829043596       -1.1896225096        0.2961881907
 C         -1.6793875498       -0.1644237999        1.1411438208
 C         -2.5675899003        0.8223831099        0.5171389210
 C         -2.8035055603        0.7455688299       -0.8049992990
 C         -3.7441140207        1.6380191196       -1.5611069889
 C         -5.1566521905        1.0377002191       -1.6044144688
 C         -5.6767407702        0.5832504388       -0.2404625388
 H         -6.6907811601        0.2056666785       -0.3888782787
 H         -5.0711403299       -0.2549642510        0.1116526011
 C         -5.6926402905        1.6816976887        0.8320351513
 H         -5.6322099109        2.6625497488        0.3591224514
 H         -6.6455083105        1.6376040084        1.3637920914
 C         -4.5895800104        1.5573237490        1.8850933812
 H         -4.5928900300        0.5463279890        2.3005299111
 H         -4.8206510506        2.2463438289        2.7018911013
 C         -3.1685500205        1.8764912496        1.4030671811
 H         -3.1599611009        2.8496064796        0.9085501412
 H         -2.5226844905        1.9321095397        2.2839270511
 H         -5.8356284808        1.7819735289       -2.0245640387
 H         -5.1459632403        0.1729127692       -2.2717688588
 H         -3.7741643710        2.6174020396       -1.0871496788
 H         -3.3753122509        1.7460503798       -2.5824974389
 O         -2.2359901401       -0.1922466099       -1.6003649791
 C         -1.4185209197       -1.1893400396       -1.0800812393
 O         -0.9816316595       -1.9719449694       -1.9395508194
 H          1.5254489004       -0.6368540788        1.8342480605
 C          1.9040972805       -1.1958138886        0.9874833504
 C          1.0827512008       -2.1461027588        0.3854844504
 C          1.5813326709       -2.8255732586       -0.7196142197
 C          2.8597408008       -2.5693971381       -1.1885218598
 C          3.6697763205       -1.6271452478       -0.5820714898
 C          3.1773704604       -0.9291467181        0.5121658603
 N          3.9763531401        0.0737637421        1.1122690803
 S          4.1764355595        1.4488954023        0.1764962804
 O          4.9144029895        1.0972325826       -1.0086853797
 O          4.7833967892        2.4312765624        1.0446537904
 C          2.5218697593        1.9565115017       -0.2595813194
 C          1.8920168594        1.3477383316       -1.3267940294
 C          0.5901949292        1.7111661711       -1.6306928592
 C         -0.0553972110        2.6709438409       -0.8668999291
 C          0.5871766389        3.2659920310        0.2074438909
 C          1.8867557090        2.9025500914        0.5197714307
 H          2.4252392689        3.3454762216        1.3423938307
 H          0.0778107886        4.0074900508        0.8015664910
 H         -1.0663369512        2.9540178005       -1.1126405990
 H          0.0823291493        1.2357455810       -2.4554164192
 H          2.4234996096        0.6098994618       -1.9057406395
 H          3.6365739501        0.3502671219        2.0237369704
 H          4.6560319404       -1.4008734375       -0.9531461598
 H          3.2255133309       -3.1100008779       -2.0485402098
 H          0.9671966311       -3.5329111788       -1.2467668297
 C         -0.3119455691       -2.2595814594        0.9447948905
 H         -0.2460227091       -1.9335031194        1.9946861706
 C         -1.0032311486       -3.6148845196        1.0027922105
 C         -1.2637129284       -4.5324090996       -0.1525428995
 C         -0.2783100682       -4.9236897194        0.9068568003
 H         -0.5535455878       -5.7102900095        1.5936967303
 H          0.7724544918       -4.9014283290        0.6645664602
 H         -2.2177658782       -5.0407369000       -0.1725082295
 H         -0.9204715586       -4.2423453194       -1.1310786296
 H         -1.8061291086       -3.5762578700        1.7357935706
 O         -1.3970844698       -0.0844128199        2.3678500008
