  62
        -98.94337840
 C         -2.5174242078       -1.1537730490        0.0102444806
 C         -3.4324451896       -0.5556859407        0.9185673194
 C         -4.3446077460        0.4474908602        0.3619076845
 C         -4.3028096507        0.7258333011       -0.9532773882
 C         -5.1840860785        1.7031074828       -1.6823970585
 C         -4.6953603504        3.1563931999       -1.6116834696
 C         -4.8700052549        3.8355546327       -0.2527012947
 H         -4.6928866724        4.9023506744       -0.4030738826
 H         -5.9023535488        3.7209071433        0.0791516479
 C         -3.9167200273        3.3260005304        0.8374610197
 H         -3.4845652223        4.1763214970        1.3697115567
 H         -3.0880427646        2.7851101002        0.3743122775
 C         -4.5726434101        2.4238589870        1.8830292021
 H         -3.8000715901        2.0925073636        2.5815364034
 H         -5.3141904523        2.9947119207        2.4461822502
 C         -5.2538068897        1.1767389320        1.3041215936
 H         -5.4897433443        0.5001429372        2.1290226061
 H         -6.1805478629        1.4526223858        0.8014093110
 H         -3.6422605525        3.1851854131       -1.9010892402
 H         -5.2594915286        3.7259291487       -2.3538791721
 H         -6.2005902402        1.6403318011       -1.2929916313
 H         -5.1926971710        1.3928626667       -2.7295575533
 O         -3.4349423052        0.1116123758       -1.7976347922
 C         -2.5071406820       -0.8152316172       -1.3426503838
 O         -1.7606911288       -1.2434424945       -2.2476428092
 O         -3.4870489732       -0.8560331077        2.1403400903
 C         -1.5572162974       -2.1757157565        0.5958826271
 C         -0.1981843134       -1.5707008867        0.8595818096
 C          0.3124296434       -1.5012502288        2.1504994642
 C          1.5622722174       -0.9551332821        2.3846612338
 C          2.3240627984       -0.4616079167        1.3407486261
 C          1.8225076912       -0.5249755812        0.0470346709
 C          0.5734718978       -1.0838531090       -0.1858040243
 H          0.1862083233       -1.1271878010       -1.1932080721
 N          2.5666949960        0.0032817458       -1.0199577980
 S          4.1986203188       -0.3588831538       -1.1394377097
 O          4.5277426780       -0.1738644578       -2.5357380976
 O          4.4997652557       -1.6545479146       -0.5757822316
 C          4.9882475525        0.9208117240       -0.1850679586
 C          5.9065956649        0.5863355609        0.7907709139
 C          6.5180705013        1.6005159774        1.5115411774
 C          6.2030784980        2.9238727229        1.2441255590
 C          5.2805854774        3.2432067217        0.2587460782
 C          4.6668929004        2.2342968564       -0.4661827902
 H          3.9464847308        2.4404111975       -1.2403162985
 H          5.0371485550        4.2733888082        0.0540048195
 H          6.6788009644        3.7114937631        1.8068265620
 H          7.2358018114        1.3544521022        2.2775090696
 H          6.1153702738       -0.4566196615        0.9683611126
 H          2.1048704010       -0.0810414291       -1.9139490586
 H          3.2970658951       -0.0333461349        1.5176748312
 H          1.9467967241       -0.9086744815        3.3920560606
 H         -0.2826988381       -1.8692649737        2.9734493159
 H         -1.9927009022       -2.4497448506        1.5663030251
 C         -1.4295866978       -3.4336276152       -0.2412839773
 C         -0.9605463308       -4.6970270774        0.4130292782
 C         -2.3888218374       -4.5628101904       -0.0210326864
 H         -2.7255846084       -5.1262099002       -0.8782709260
 H         -3.1436181156       -4.4353576182        0.7412365202
 H         -0.3114566357       -5.3547116924       -0.1446228568
 H         -0.7469939315       -4.6628946882        1.4705996598
 H         -1.1108617177       -3.2454957595       -1.2583820223
