  62
        -98.94665963
 C          1.4647228492        1.4587523600       -0.4266479697
 C          2.7354873390        1.3881742099        0.1974410506
 C          3.5382363392        0.2009756100       -0.1132948095
 C          3.0464114595       -0.7375288097       -0.9427347899
 C          3.7507438097       -1.9982049796       -1.3670068701
 C          3.6247292895       -3.1581640499       -0.3695310705
 C          4.4335395392       -3.0027908202        0.9186919898
 H          4.4241950991       -3.9717457403        1.4220052695
 H          5.4711301792       -2.7756739800        0.6720101902
 C          3.8872189788       -1.9404230505        1.8829397400
 H          2.8589475789       -1.6914178205        1.6099631198
 H          3.8602332786       -2.3465986408        2.8966602299
 C          4.7072876887       -0.6514627505        1.9322179506
 H          5.7024221486       -0.8637783005        2.3295060208
 H          4.2137441685        0.0439932993        2.6158921007
 C          4.8609955590        0.0471671499        0.5749677008
 H          5.2644768489        1.0478761499        0.7483947212
 H          5.5571716292       -0.5051792898       -0.0558720191
 H          3.9646665897       -4.0631600097       -0.8783830906
 H          2.5711595295       -3.2928212700       -0.1173160908
 H          4.8054290597       -1.7849066494       -1.5438280697
 H          3.2972392100       -2.3040016693       -2.3122000503
 O          1.8263210197       -0.6283926797       -1.5292313402
 C          0.9988962295        0.4567102502       -1.2795706401
 O         -0.0909598003        0.4091758203       -1.8793517304
 O          3.1778602488        2.2768612297        0.9729456110
 C          0.5706213190        2.6432377198       -0.0958013496
 C         -0.5882383712        2.1054610995        0.7041992799
 C         -0.4214692715        1.8602561691        2.0644999999
 C         -1.4252121717        1.2635427688        2.8044279995
 C         -2.6096217815        0.8789640589        2.1989725890
 C         -2.7788595311        1.1089848793        0.8405346490
 C         -1.7845426510        1.7403334296        0.1062105795
 H         -1.9314516207        1.9061871799       -0.9488666205
 N         -3.9639695709        0.6779073594        0.2041613486
 S         -4.2488823508       -0.9737291406        0.2279661180
 O         -5.2938541405       -1.1959967904       -0.7457914823
 O         -4.5489875611       -1.3717982510        1.5808951878
 C         -2.7343597706       -1.7472298303       -0.3086474118
 C         -1.7464111708       -2.0128555305        0.6174992084
 C         -0.5599154907       -2.5801295803        0.1830496686
 C         -0.3828558103       -2.8724807099       -1.1596210515
 C         -1.3836463401       -2.5962136597       -2.0766191217
 C         -2.5693096302       -2.0228280499       -1.6504146218
 H         -3.3722376000       -1.7929808298       -2.3326067620
 H         -1.2368735897       -2.8146514994       -3.1220947517
 H          0.5437510498       -3.3091037298       -1.4980326013
 H          0.2240063091       -2.7854156705        0.8962471787
 H         -1.9199456711       -1.7787293509        1.6552776484
 H         -4.0279737607        1.0013510997       -0.7515988013
 H         -3.3922247416        0.3840865087        2.7511001587
 H         -1.2831277119        1.0864181185        3.8599490895
 H          0.5154053183        2.1304330490        2.5316250703
 H          1.1717244088        3.2919741197        0.5548901308
 C          0.1667248993        3.4253833902       -1.3268897895
 C         -0.4321435708        4.7895530001       -1.1635427392
 C          0.9540189293        4.6401231103       -1.7126833189
 H          1.1177099496        4.8353919107       -2.7619256788
 H          1.7867114591        4.9172632702       -1.0830418986
 H         -1.2216900107        5.0916569802       -1.8346006693
 H         -0.5416513511        5.1674047598       -0.1582431391
 H         -0.2017659204        2.8022485404       -2.1324710597
