  62
        -98.93283119
 C         -1.8190975502       -0.6817815598        0.3571780207
 C         -2.1538563303        0.5783046900       -0.1987246298
 C         -3.5389828303        0.7600488896       -0.6642596100
 C         -4.4011343302       -0.2642040304       -0.5462407897
 C         -5.8636116701       -0.2811372107       -0.8968281498
 C         -6.7214758303        0.0845405796        0.3265551800
 C         -6.9659446904        1.5806205397        0.5197073394
 H         -7.4755547705        1.7051337300        1.4780147794
 H         -7.6429367804        1.9369453793       -0.2596000807
 C         -5.7094076305        2.4548608798        0.5139839892
 H         -4.9232793405        1.9724643701        1.0977287895
 H         -5.9529794607        3.3944730600        1.0136998389
 C         -5.1939534205        2.7621381694       -0.8997421108
 H         -5.0534778306        3.8396781893       -1.0078511812
 H         -5.9531491204        2.4753423490       -1.6270485808
 C         -3.8555007304        2.1038341494       -1.2621089305
 H         -3.0325638905        2.7494000396       -0.9393669806
 H         -3.7796965503        2.0253511790       -2.3519625004
 H         -6.2322820203       -0.3263759100        1.2134875402
 H         -7.6921820402       -0.4066593905        0.2328470301
 H         -6.0683553401        0.3806621290       -1.7330926701
 H         -6.0996898200       -1.3054504408       -1.1927157495
 O         -4.0393889001       -1.4626069302       -0.0145903892
 C         -2.7510977501       -1.7169382699        0.4382193910
 O         -2.5956274400       -2.8724818797        0.8709578314
 H          2.0445574197        0.0870913106        0.1719754007
 C          1.7500856099       -0.7328716497       -0.4640400090
 C          0.5091133599       -1.3248717198       -0.2860988189
 C          0.1319435101       -2.3587274201       -1.1365226986
 C          0.9859780303       -2.7864926804       -2.1368160383
 C          2.2355663502       -2.2118062203       -2.2923301884
 C          2.6226240500       -1.1799207099       -1.4461403488
 N          3.8789799800       -0.5708568699       -1.5673975889
 S          4.7319452198       -0.1838029893       -0.1768200789
 O          6.1141325698       -0.1303770893       -0.6011816988
 O          4.4275306198       -1.1000114989        0.8966001714
 C          4.1885550896        1.4591696208        0.2375978004
 C          4.2803278096        2.4432554205       -0.7264893099
 C          3.8700090794        3.7283470506       -0.4109547604
 C          3.3793958893        4.0063908609        0.8559852995
 C          3.2972621293        3.0079595313        1.8140714598
 C          3.7063025895        1.7205116412        1.5047447103
 H          3.6524365695        0.9131924815        2.2186418106
 H          2.9133038192        3.2246791116        2.7981060397
 H          3.0572819291        5.0067346110        1.0988596191
 H          3.9304970494        4.5083246203       -1.1527542407
 H          4.6682237097        2.1891502902       -1.6987898798
 H          4.4767874301       -0.9637644700       -2.2797713687
 H          2.9057756003       -2.5583590305       -3.0643656983
 H          0.6813537504       -3.5873455806       -2.7939113181
 H         -0.8316674098       -2.8273339802       -1.0006593785
 C         -0.3862033202       -0.8455839595        0.8274764709
 H         -0.0576895803        0.1739778706        1.0872233505
 C         -0.2418869102       -1.6949142290        2.0819267312
 C          0.2795585999       -3.0968550390        2.0762594617
 C          1.1161039598       -1.9933557587        2.6472395614
 H          1.2475077397       -1.9483525083        3.7181302214
 H          1.9856690498       -1.6838813188        2.0845567214
 H          0.5780329601       -3.5252383293        1.1323468219
 H         -0.1833273500       -3.8064980788        2.7447674819
 H         -1.0277124603       -1.4838228889        2.8006907210
 O         -1.3238097204        1.5231996400       -0.2898260901
