  62
        -98.93821555
 C         -0.2198692207       -1.7516401199        1.1668615500
 C          0.8801601902       -2.3842140199        0.5337354916
 C          2.1898676198       -1.7432472992        0.6920201324
 C          2.2898486886       -0.6209932186        1.4249553317
 C          3.5398669780        0.1815512020        1.6671732123
 C          4.1187602190        0.8715659413        0.4155452124
 C          5.2426903400        0.0827018113       -0.2681608859
 H          6.0219940700        0.7802765914       -0.5822111056
 H          5.6971347995       -0.5882827380        0.4622284651
 C          4.8319812216       -0.7172378598       -1.5082903057
 H          4.7401332222       -0.0352448305       -2.3570975763
 H          5.6366112521       -1.4209499296       -1.7349875044
 C          3.5135815118       -1.4860183302       -1.4046589565
 H          2.6741440716       -0.7908212806       -1.4949890678
 H          3.4448275229       -2.1589351809       -2.2626244860
 C          3.3360144308       -2.2947577794       -0.1037893560
 H          4.2537717602       -2.2895645586        0.4829118149
 H          3.0830182015       -3.3297708696       -0.3434697355
 H          3.3131993596        1.0699695305       -0.2939476985
 H          4.5201418683        1.8360721417        0.7325714921
 H          4.2991602978       -0.4643237273        2.1132813736
 H          3.2685165870        0.9390012125        2.4052802615
 O          1.2258019977       -0.0778342286        2.0695060502
 C         -0.0619693519       -0.5837327192        1.9140327893
 O         -0.9282658928        0.0894237408        2.4996237579
 O          0.7643517213       -3.4428337304       -0.1428255378
 C         -1.5916754601       -2.3088086707        0.8253572290
 C         -1.9843225590       -1.7725481118       -0.5306903518
 C         -2.5651919277       -2.5751113028       -1.5046036618
 C         -2.8501024866       -2.0600714238       -2.7579109224
 C         -2.5305553168       -0.7516242539       -3.0750987331
 C         -1.9467097181        0.0573038370       -2.1069771031
 C         -1.7137375292       -0.4473678319       -0.8385644925
 H         -1.2727354602        0.1928760488       -0.0908952925
 N         -1.5769869484        1.3849027470       -2.3706241937
 S         -0.1616183693        1.9712006881       -1.6850657727
 O          0.2145522111        3.0821979776       -2.5372876031
 O          0.8363349710        0.9354343686       -1.5433601709
 C         -0.6299080512        2.6150873591       -0.0944363936
 C         -1.9342562816        2.9957353187        0.1463763048
 C         -2.2564840630        3.5217723495        1.3867006441
 C         -1.2759767141        3.6642239706        2.3554575749
 C          0.0305856763        3.2860543809        2.0939780465
 C          0.3593099078        2.7577721602        0.8569597372
 H          1.3607267982        2.4332742504        0.6213325085
 H          0.7918584455        3.3864095418        2.8509377372
 H         -1.5320220652        4.0641761412        3.3238331744
 H         -3.2739733334        3.8102251092        1.5967124228
 H         -2.6761076807        2.8600573978       -0.6234240359
 H         -1.6814640876        1.6829738362       -3.3296210740
 H         -2.7185996560       -0.3622258147       -4.0639955535
 H         -3.3015871356       -2.6928101945       -3.5069097424
 H         -2.7687451475       -3.6129519427       -1.2858781212
 H         -1.4533464996       -3.3969854807        0.7206600200
 C         -2.6529410613       -2.0769092703        1.8876254778
 C         -3.7202816416       -1.0365696008        1.7555290659
 C         -4.0740265309       -2.4868106311        1.6356397467
 H         -4.6241913215       -2.9540621407        2.4381554065
 H         -4.3201287597       -2.8604902419        0.6534583667
 H         -4.0049407927       -0.4978511503        2.6456072753
 H         -3.7282336809       -0.4322055815        0.8618180955
 H         -2.2664184622       -2.2439720594        2.8870637283
