  62
        -98.94961536
 C         -1.6985490904       -1.2064415694        0.3369892095
 C         -1.3268258802       -0.1538410495       -0.5313992106
 C         -1.8400309401        1.1743856906       -0.1846061208
 C         -2.5791413602        1.3336519808        0.9278500591
 C         -3.1428362201        2.6326414609        1.4368033289
 C         -4.4694480600        3.0420908310        0.7817064488
 C         -4.3603221798        3.5319777308       -0.6628327013
 H         -5.3185488398        3.9887128209       -0.9182154914
 H         -3.6007922198        4.3120701107       -0.7228103113
 C         -4.0510302099        2.4286580506       -1.6841048011
 H         -4.2594746700        1.4530572907       -1.2390806111
 H         -4.7120428098        2.5361949706       -2.5469439612
 C         -2.6152626098        2.4357193404       -2.2085083110
 H         -2.4340315297        3.3556235504       -2.7684939211
 H         -2.4971590898        1.5931295404       -2.8940984309
 C         -1.5449166399        2.3109023205       -1.1161335109
 H         -0.5835717799        2.1070447703       -1.5941615908
 H         -1.4602952299        3.2437105505       -0.5584836510
 H         -5.1569063001        2.1943326910        0.8288733688
 H         -4.8938181400        3.8477724411        1.3852754386
 H         -3.3127308302        2.4976415110        2.5074197989
 H         -2.4051807900        3.4249786108        1.3037527489
 O         -2.8922814104        0.3004017809        1.7551074592
 C         -2.4600570605       -0.9876243392        1.4828280294
 O         -2.8131129307       -1.8395191790        2.3258871194
 H          0.5101276495       -1.2484265295        1.6035322197
 C          1.0321653095       -1.8091108596        0.8414464998
 C          0.3135851895       -2.5904185396       -0.0546565402
 C          1.0143843095       -3.3122624498       -1.0128490601
 C          2.3938740795       -3.2233219099       -1.0881543300
 C          3.0992768595       -2.4003532199       -0.2293111200
 C          2.4077249795       -1.6849404097        0.7413728799
 N          3.0740612895       -0.8196708897        1.6343696098
 S          2.6816514197        0.8088936403        1.5752443696
 O          3.5444238297        1.4341585903        2.5553495696
 O          1.2650450097        0.9866960505        1.7649631995
 C          3.1782725999        1.3303359401       -0.0577521104
 C          2.3916757099        1.0008773600       -1.1433612904
 C          2.8239854301        1.3605974499       -2.4111724204
 C          4.0242348102        2.0349254897       -2.5723184504
 C          4.8029377301        2.3564954698       -1.4705877004
 C          4.3802244500        1.9974261799       -0.2012505604
 H          4.9492346899        2.2278631000        0.6850056697
 H          5.7356434502        2.8823766797       -1.5963772403
 H          4.3528626803        2.3111778296       -3.5618233204
 H          2.2118777401        1.1052829798       -3.2614762705
 H          1.4577625999        0.4793226302       -0.9996908604
 H          4.0806657695       -0.9152395598        1.6170882399
 H          4.1722480895       -2.3089289100       -0.3064937099
 H          2.9246186095       -3.7875863701       -1.8396253398
 H          0.4789763195       -3.9389195698       -1.7072425400
 C         -1.1911732505       -2.6118613995        0.0690952997
 H         -1.4588013607       -3.2090179193        0.9535024097
 C         -1.8844462705       -3.1961853595       -1.1451855203
 C         -2.1311309506       -4.6711567395       -1.2416496202
 C         -3.2740846806       -3.7348025894       -0.9925609904
 H         -3.9851046505       -3.5621338494       -1.7864860805
 H         -3.7087007006       -3.7044251592       -0.0036425504
 H         -2.0619739706       -5.1440650696       -2.2096757201
 H         -1.7972605008       -5.2891016094       -0.4218406401
 H         -1.6556299404       -2.6523191596       -2.0546147404
 O         -0.5949721802       -0.3158188697       -1.5436791605
