  62
        -98.93723144
 C         -1.4809106508       -1.5586012904       -0.3075915910
 C         -1.4123203404       -0.2337804306        0.1939882396
 C         -2.6626449401        0.3041741894        0.7578246602
 C         -3.7734785503       -0.4518849704        0.7622235101
 C         -5.1239218801        0.0056474597        1.2301100306
 C         -5.9306256302        0.6194965704        0.0768076011
 C         -5.1579390601        1.6590823307       -0.7354914286
 H         -4.3333018204        1.1647242908       -1.2539331690
 H         -5.8362020702        2.0406004612       -1.5019690982
 C         -4.6074674797        2.8302269701        0.0902272119
 H         -4.8168189596        3.7611880005       -0.4409085176
 H         -5.1248487495        2.8816830398        1.0489899520
 C         -3.0974186897        2.7818910097        0.3308075915
 H         -2.5779021199        2.6400411600       -0.6197847886
 H         -2.7886924093        3.7490140994        0.7356160520
 C         -2.6140557797        1.7025487891        1.3067754209
 H         -3.1786165795        1.7685490087        2.2389083810
 H         -1.5600839296        1.8999267987        1.5227289008
 H         -6.2353824405       -0.1840564391       -0.5978846693
 H         -6.8324740900        1.0747148604        0.4904785815
 H         -5.6647442302       -0.8578710404        1.6210045703
 H         -4.9985539597        0.7349111793        2.0281124609
 O         -3.8003039207       -1.7216010401        0.2814240894
 C         -2.6655324309       -2.3006760701       -0.2568520311
 O         -2.8360485213       -3.4719715599       -0.6555501517
 O         -0.3844884302        0.4866916591        0.1841645298
 C         -0.2870010811       -2.2826785803       -0.9265575416
 C          0.8673934691       -2.3243483911        0.0428449181
 C          0.9803638290       -3.4437838915        0.8666249075
 C          1.9769673992       -3.5320118422        1.8195242672
 C          2.8923719195       -2.5060885125        1.9729468076
 C          2.7876058396       -1.3815636921        1.1639580081
 C          1.7848511894       -1.2979544614        0.2067476384
 H          1.7151990195       -0.4016924611       -0.3795571811
 N          3.6656892899       -0.3044008524        1.3240809385
 S          4.0555133998        0.7097282782        0.0588199989
 O          4.2023907794       -0.0227056812       -1.1784989915
 O          5.2428726601        1.4017867477        0.5194057890
 C          2.7180984501        1.8769479385       -0.0503919502
 C          2.1786112004        2.3828617681        1.1140193002
 C          1.1542357506        3.3100226983        1.0268415809
 C          0.6919481504        3.7162613691       -0.2146269588
 C          1.2498478801        3.2041680895       -1.3742293292
 C          2.2748681299        2.2755646693       -1.2946621099
 H          2.7243217196        1.8383950396       -2.1728859602
 H          0.8833150799        3.5140647801       -2.3402390690
 H         -0.1151455494        4.4292375593       -0.2793758883
 H          0.7118001209        3.7060875180        1.9272559712
 H          2.5529325006        2.0359338375        2.0630911599
 H          4.4271770500       -0.4429952229        1.9703306783
 H          3.6727412197       -2.5694275331        2.7160944573
 H          2.0448724392       -4.4084760826        2.4462952668
 H          0.2647592288       -4.2472951213        0.7583151273
 H         -0.6333684214       -3.3220744902       -1.0310765621
 C         -0.0278968213       -1.8097034497       -2.3546353815
 C          0.3455155789       -0.4124883896       -2.7472581508
 C          1.3235424786       -1.5313076597       -2.9415719416
 H          1.5119323283       -1.8717627592       -3.9497064718
 H          2.1929320188       -1.5680214702       -2.3032536218
 H         -0.1343464612        0.0076924410       -3.6204792305
 H          0.5169647093        0.3073575700       -1.9637586605
 H         -0.7345381216       -2.2913476792       -3.0270719415
