  62
        -98.94790649
 C          1.1596994567        1.1264705472        0.0337496440
 C          1.5930275249        0.0934639226        0.8975680700
 C          2.5378282064       -0.8731802002        0.3244006512
 C          2.9042522659       -0.7483130120       -0.9642288043
 C          3.8885748963       -1.6391340441       -1.6641944437
 C          5.3181565178       -1.0916946986       -1.5486417314
 C          5.7216298395       -0.7149953627       -0.1231054724
 H          6.7574605319       -0.3709763967       -0.1587494815
 H          5.1126233259        0.1296099038        0.2068860971
 C          5.5965323681       -1.8577237092        0.8941103702
 H          5.5445574493       -2.8139659939        0.3722348340
 H          6.4952172712       -1.8748584909        1.5142366160
 C          4.4030361375       -1.7332926279        1.8426038961
 H          4.4001064262       -0.7398675216        2.2978899107
 H          4.5305924180       -2.4627434847        2.6468148183
 C          3.0241208820       -1.9801160792        1.2174613269
 H          2.2977507304       -2.0476147537        2.0331339098
 H          3.0246326451       -2.9325078162        0.6822912230
 H          5.3978702705       -0.2001753760       -2.1750048476
 H          6.0071949396       -1.8433631376       -1.9381617467
 H          3.8330765459       -2.6383940209       -1.2359523909
 H          3.6107103298       -1.6934292430       -2.7184084309
 O          2.4495027998        0.2429290416       -1.7720142099
 C          1.5624261021        1.2002791587       -1.2996759498
 O          1.2188410701        2.0449109549       -2.1486587401
 O          1.2019631098       -0.0188921842        2.0912704171
 C          0.1684958214        2.1472925798        0.5552444993
 C         -1.1446435869        2.0743281317       -0.1879601637
 C         -1.9849708013        3.1734128816       -0.3275547192
 C         -3.1969188737        3.0498379203       -0.9839069900
 C         -3.6073481214        1.8332136519       -1.4984760844
 C         -2.7755563540        0.7277673135       -1.3628238477
 C         -1.5593351003        0.8583951059       -0.7115736326
 H         -0.9122604902       -0.0015920676       -0.6410212760
 N         -3.1443013103       -0.5229791154       -1.8760249413
 S         -2.6314404172       -1.9313619373       -1.1430046999
 O         -1.2372354714       -2.1730376384       -1.4222662676
 O         -3.5538331658       -2.9350915820       -1.6310523534
 C         -2.8928231021       -1.6707269105        0.6017996693
 C         -4.1932282034       -1.5165614539        1.0429304844
 C         -4.4210273036       -1.2691505168        2.3863213231
 C         -3.3496644653       -1.1719218372        3.2621062077
 C         -2.0515521152       -1.3358000129        2.8057501492
 C         -1.8194009488       -1.5914657300        1.4637160571
 H         -0.8179558057       -1.7168955700        1.0824654153
 H         -1.2084408104       -1.2505817152        3.4728389647
 H         -3.5258903949       -0.9691099157        4.3066863719
 H         -5.4299589983       -1.1473194366        2.7459684582
 H         -5.0005058337       -1.6051171805        0.3343274396
 H         -4.0872221852       -0.5891664765       -2.2281157494
 H         -4.5528726311        1.7389302097       -2.0096125811
 H         -3.8354068159        3.9133068498       -1.0917733654
 H         -1.6859668046        4.1284879546        0.0723668301
 H         -0.0248041036        1.8567527329        1.6000086259
 C          0.7760552907        3.5365111692        0.5424090833
 C          0.4562247814        4.5217577699        1.6257702936
 C          1.8095686567        3.8816644896        1.5715477270
 H          2.6569076847        4.4799462701        1.2718970873
 H          2.0477016120        3.1250956034        2.3051530010
 H          0.3754804923        5.5660758689        1.3639184095
 H         -0.2175670790        4.2066888426        2.4081414820
 H          0.9287938544        3.9108550474       -0.4635711709
