  62
        -98.93555209
 C          2.2716775598        1.2586891273        0.1647405742
 C          3.2216965177        0.6204598602        0.9975274632
 C          4.0649197172       -0.4258788815        0.3866562530
 C          3.8553222895       -0.7501664583       -0.9024803813
 C          4.5518123417       -1.8010906700       -1.7256201099
 C          4.0805232804       -3.2250118027       -1.3895042328
 C          3.9498170096       -3.5238015012        0.1017841162
 H          3.2487660860       -2.8158092926        0.5484022800
 H          3.5097707701       -4.5196043562        0.2028051902
 C          5.2595423141       -3.5084652961        0.8867182241
 H          5.9428664518       -4.2433838624        0.4556432444
 H          5.0290755606       -3.8276339341        1.9063985062
 C          5.9794078614       -2.1602339493        0.9628383491
 H          6.7407320288       -2.2425517582        1.7439343504
 H          6.5081782927       -1.9447549725        0.0383083333
 C          5.0888151647       -0.9827526751        1.3465622197
 H          4.5403478397       -1.2307517328        2.2625423390
 H          5.7299215460       -0.1349137085        1.6171406790
 H          3.0976728658       -3.3717024401       -1.8450048052
 H          4.7727616680       -3.9344601802       -1.8459901405
 H          5.6281949573       -1.7122056741       -1.6121529771
 H          4.3081432005       -1.5928793380       -2.7698397736
 O          2.8874413498       -0.1502502005       -1.6522537133
 C          2.0744011219        0.8562962369       -1.1567452963
 O          1.2446439018        1.2863001080       -1.9787796480
 O          3.3613781322        0.9048865345        2.2182149868
 C          1.4065594818        2.3433026363        0.7816307343
 C         -0.0436178292        2.0976894337        0.4482516280
 C         -0.8430795280        2.9986107264       -0.2413747007
 C         -2.1611560865        2.6872005446       -0.5270096759
 C         -2.7107899018        1.4824972514       -0.1299618029
 C         -1.9184282418        0.5709156695        0.5558364663
 C         -0.6009313022        0.8879428891        0.8454630890
 H          0.0190239157        0.1735805756        1.3748933595
 N         -2.4683609858       -0.6537590544        0.9751402293
 S         -3.3275759294       -1.5684965270       -0.1409734103
 O         -3.2476321460       -2.9268340671        0.3529801268
 O         -2.8634958964       -1.3485504692       -1.4909163697
 C         -5.0010510453       -0.9859887933        0.0371924114
 C         -5.7008794728       -0.5569264485       -1.0734415038
 C         -7.0049253810       -0.1141392286       -0.9140419325
 C         -7.5828527286       -0.1091885836        0.3461712869
 C         -6.8672319432       -0.5460625781        1.4511107881
 C         -5.5639222207       -0.9912576124        1.2985495820
 H         -4.9751705774       -1.3411935624        2.1298604786
 H         -7.3198007764       -0.5404956541        2.4295869425
 H         -8.5968833020        0.2375184140        0.4677613024
 H         -7.5622452096        0.2255379868       -1.7722210682
 H         -5.2070078496       -0.5720340718       -2.0321759440
 H         -1.8165749067       -1.2375618384        1.4795114522
 H         -3.7344895602        1.2350404893       -0.3585523549
 H         -2.7692420838        3.3932305893       -1.0717574778
 H         -0.4273178268        3.9327534100       -0.5808019032
 H          1.5307525345        2.2018552861        1.8687941948
 C          1.8669106331        3.7608870531        0.4782853066
 C          3.3084484515        4.0603538609        0.1982808898
 C          2.2900927449        4.1947245485       -0.8919116073
 H          2.0211552293        5.1882556413       -1.2199105795
 H          2.2726002103        3.4564148169       -1.6780248368
 H          3.7370055022        4.9578872904        0.6182656435
 H          3.9943367907        3.2265520141        0.1571008831
 H          1.3343156838        4.4934204620        1.0769759437
