  62
        -98.94306762
 C         -0.4052452877       -2.0939113346        0.2639683384
 C         -1.1215445820       -1.3548947259        1.2345403470
 C         -2.4594600254       -0.8934494209        0.8429182671
 C         -2.9382690050       -1.2250554143       -0.3695756441
 C         -4.2271374471       -0.7291388342       -0.9598600090
 C         -4.0284621456        0.7020760173       -1.5016474848
 C         -4.8328228357        1.7748604706       -0.7660496183
 H         -5.8781075578        1.7139429644       -1.0781303868
 H         -4.4449661628        2.7434243414       -1.0895993879
 C         -4.7939823888        1.7090093357        0.7639537388
 H         -5.4961576379        0.9511114938        1.1156104674
 H         -5.1600522819        2.6694671726        1.1331582035
 C         -3.4183564341        1.4331510547        1.3849983606
 H         -3.3136628590        2.0571088645        2.2754849676
 H         -2.6247566207        1.7259744990        0.6945226172
 C         -3.2030581288       -0.0295042493        1.8224280710
 H         -4.1658221716       -0.4874308043        2.0646506246
 H         -2.5943176685       -0.0409140414        2.7315677424
 H         -4.3048094998        0.7331047847       -2.5572219402
 H         -2.9649162430        0.9503356365       -1.4523447734
 H         -5.0134636116       -0.7499263964       -0.2084497361
 H         -4.4977548686       -1.4062923518       -1.7705220641
 O         -2.2498381080       -1.9979542458       -1.2485054234
 C         -0.9478650480       -2.4003323733       -0.9833963132
 O         -0.4030397951       -3.0194151766       -1.9174266518
 O         -0.6494446703       -1.0694507222        2.3690990820
 C          1.0513694789       -2.4217715148        0.5305738687
 C          1.9323277732       -1.6171730314       -0.3989799978
 C          3.1592666799       -2.0692414669       -0.8694671224
 C          3.9183627579       -1.2760328956       -1.7132561923
 C          3.4827789366       -0.0214019674       -2.1005519839
 C          2.2577464728        0.4414939716       -1.6327149967
 C          1.5075267529       -0.3527748566       -0.7821180721
 H          0.5504284265        0.0099192107       -0.4449130931
 N          1.7537663875        1.6892222006       -2.0187899352
 S          0.6761845321        2.5396576544       -1.0716219549
 O         -0.6103957751        1.8893850883       -1.0446653395
 O          0.6947377410        3.8713988983       -1.6391030220
 C          1.4126533373        2.5779611100        0.5515170796
 C          2.5987489116        3.2736495404        0.6917943724
 C          3.2212072785        3.2990107313        1.9282641802
 C          2.6529476620        2.6264282876        3.0003700678
 C          1.4601209813        1.9388326830        2.8454388432
 C          0.8305841526        1.9143958889        1.6106199050
 H         -0.0940368904        1.3778561667        1.4683505391
 H          1.0119217096        1.4055325807        3.6685988320
 H          3.1405896135        2.6393535620        3.9623548967
 H          4.1467027765        3.8377081232        2.0527193417
 H          3.0035520854        3.7926638755       -0.1617485577
 H          2.3866612401        2.2851593751       -2.5292639359
 H          4.0730064649        0.5873540655       -2.7678043219
 H          4.8660484088       -1.6421869494       -2.0778260625
 H          3.5152818745       -3.0457904768       -0.5844451923
 H          1.2442755851       -2.0762664073        1.5582093805
 C          1.3138579238       -3.9113565188        0.4626285874
 C          2.3503894292       -4.5400382809        1.3443372136
 C          0.8955312317       -4.7709506687        1.6169330303
 H          0.4755880561       -5.7436053675        1.4095101494
 H          0.4483251106       -4.2752045650        2.4662517246
 H          2.9319677749       -5.3601006634        0.9508148407
 H          2.8928380287       -3.8953867812        2.0193408445
 H          1.1755333473       -4.3122158086       -0.5348348467
