  62
        -98.95212223
 C         -2.3632821340       -0.3023779132        0.0401653958
 C         -1.5123112253        0.2516283765       -0.9440027811
 C         -1.4859764517        1.7175141687       -1.0234455944
 C         -2.2490447986        2.4346855638       -0.1789282492
 C         -2.3343707315        3.9333856276       -0.1592102157
 C         -1.3314207121        4.5551398988        0.8205415711
 C          0.0985013380        4.0388566130        0.6595767320
 H          0.7249164110        4.5953563385        1.3612261350
 H          0.1445211490        2.9902062673        0.9627939815
 C          0.6724212225        4.1779849495       -0.7572273027
 H          0.0994595463        4.9150378974       -1.3220280561
 H          1.6964416141        4.5498018754       -0.6801921880
 C          0.7344797937        2.8636491410       -1.5379256403
 H          1.1792864218        2.0950224945       -0.9007690677
 H          1.3958581481        3.0057794675       -2.3971242856
 C         -0.6054536362        2.3390488230       -2.0707216856
 H         -1.1331224426        3.1405372414       -2.5929407014
 H         -0.3903911134        1.5432180003       -2.7898322239
 H         -1.3461196177        5.6386221184        0.6836961374
 H         -1.6593129950        4.3368899815        1.8396662745
 H         -2.1546727547        4.3110605265       -1.1642150314
 H         -3.3446272175        4.2113038829        0.1478112656
 O         -3.0362103322        1.8681205868        0.7720758980
 C         -3.0982729356        0.4919791752        0.9177130150
 O         -3.8392382562        0.1031981705        1.8452731229
 H         -0.4566635081       -0.8711737758        1.6566071088
 C         -0.1725982443       -1.7757394939        1.1385217128
 C         -1.0929416476       -2.4177434001        0.3201245252
 C         -0.7051065042       -3.5883639988       -0.3203771133
 C          0.5802065997       -4.0793025571       -0.1677588875
 C          1.5095318867       -3.4048730413        0.6028464860
 C          1.1270408370       -2.2395457476        1.2568805348
 N          2.0391953175       -1.5000584625        2.0388834988
 S          2.3816023663        0.0624195573        1.5353095235
 O          3.3581274646        0.5556477415        2.4832126175
 O          1.1631647209        0.8196965958        1.4232951319
 C          3.1636938621       -0.1420853944       -0.0557464876
 C          2.3956487848       -0.4538638060       -1.1599928701
 C          3.0335425421       -0.6670874345       -2.3731029365
 C          4.4131128465       -0.5695139608       -2.4622257015
 C          5.1691073760       -0.2573705090       -1.3420760675
 C          4.5406787570       -0.0461097282       -0.1260433264
 H          5.0846246548        0.2016032054        0.7712407511
 H          6.2421742739       -0.1797992162       -1.4118870692
 H          4.9004786865       -0.7367146203       -3.4098603156
 H          2.4371784682       -0.9085701008       -3.2382588819
 H          1.3212009134       -0.5194732237       -1.0797591031
 H          2.9081795329       -1.9858467104        2.2158267246
 H          2.5206260860       -3.7713442352        0.6988393916
 H          0.8674772236       -4.9889583800       -0.6725377299
 H         -1.4081615662       -4.1135992477       -0.9459792468
 C         -2.4677303064       -1.8106857691        0.1814854454
 H         -3.0236245281       -1.9935769941        1.1131762859
 C         -3.2586692060       -2.3809566239       -0.9793130236
 C         -4.1027617359       -3.6055296773       -0.7958229819
 C         -4.7522183326       -2.2653101162       -0.9605918310
 H         -5.2648835007       -2.0476203007       -1.8854931277
 H         -5.1994477056       -1.7993321836       -0.0943077121
 H         -4.1747001182       -4.3097882608       -1.6109369311
 H         -4.1218841072       -4.0584333760        0.1839344193
 H         -2.7585765735       -2.2390337633       -1.9306864389
 O         -0.8202524102       -0.4479415716       -1.7306548944
