  62
        -98.94472342
 C         -2.0089922352       -1.3685520247        0.3013236941
 C         -2.6451065462       -0.7558300616       -0.8054315106
 C         -3.7957244482        0.1021522741       -0.4857563002
 C         -4.1745093015        0.2493911925        0.7969031211
 C         -5.2898657181        1.1374385775        1.2656751753
 C         -4.7730384215        2.5415832412        1.6094135612
 C         -3.8888081126        3.1573663155        0.5246490022
 H         -3.6068608187        4.1570745132        0.8627282652
 H         -2.9670550103        2.5764094928        0.4407082847
 C         -4.5518536593        3.2527606934       -0.8566025999
 H         -5.6338784991        3.1616607399       -0.7547784957
 H         -4.3474371025        4.2406070091       -1.2748908634
 C         -4.0501556726        2.2259907189       -1.8739263579
 H         -2.9576662948        2.2500203665       -1.9117233071
 H         -4.4168308734        2.5194166972       -2.8611634899
 C         -4.4925389200        0.7769800829       -1.6333006751
 H         -5.5761243539        0.7392825849       -1.5046843983
 H         -4.2304155614        0.1987951686       -2.5241606922
 H         -5.6311011512        3.1907076075        1.7926311403
 H         -4.1905802442        2.4805159181        2.5318048856
 H         -6.0498283824        1.1984957966        0.4893348456
 H         -5.7309444766        0.6937101656        2.1598102786
 O         -3.5407787020       -0.3596983987        1.8319094489
 C         -2.4354695362       -1.1667648882        1.6130910161
 O         -1.9243370392       -1.6336635625        2.6519572225
 H          0.0586131727        0.1633751253        0.7477216732
 C          0.6102309451       -0.2161818903       -0.1042483894
 C          0.2970256668       -1.4749620817       -0.6037192751
 C          1.0261795282       -1.9576737659       -1.6819454307
 C          2.0144089752       -1.1817141652       -2.2642950647
 C          2.3039652168        0.0806426279       -1.7817842726
 C          1.5963080708        0.5637588106       -0.6875769451
 N          1.8963637512        1.8368605740       -0.1745454378
 S          3.5082646718        2.2501183258        0.0049358863
 O          3.5345784431        3.2068744591        1.0891351367
 O          4.0329576786        2.7146256231       -1.2549934815
 C          4.3324753281        0.7404677931        0.4798160012
 C          5.3322770864        0.2210016938       -0.3168967090
 C          5.9380587296       -0.9678268092        0.0573415889
 C          5.5322821914       -1.6152266439        1.2137546620
 C          4.5285288056       -1.0787073539        2.0059128640
 C          3.9212487485        0.1106654030        1.6378809967
 H          3.1408360594        0.5545561202        2.2355407026
 H          4.2131736151       -1.5829291071        2.9054014748
 H          6.0001351881       -2.5432105042        1.5021052557
 H          6.7201629454       -1.3862725738       -0.5552915528
 H          5.6140576928        0.7556689230       -1.2093138915
 H          1.3579483059        2.0912892287        0.6399575959
 H          3.0552260603        0.7045278394       -2.2380821762
 H          2.5636952282       -1.5643157951       -3.1107014474
 H          0.8136138847       -2.9376782752       -2.0755820421
 C         -0.7989453611       -2.2579188620        0.0788296544
 H         -0.4416854557       -2.5403985588        1.0800631208
 C         -1.2022360429       -3.5136478938       -0.6654680481
 C         -0.4545240444       -4.7937557409       -0.4480259050
 C         -1.8389763361       -4.6319331340        0.1017978961
 H         -2.6474250745       -5.1791753055       -0.3593120991
 H         -1.9570631645       -4.4968292406        1.1674128743
 H         -0.3138400093       -5.4580610722       -1.2872376313
 H          0.3702544053       -4.7794454661        0.2481041820
 H         -1.5880296640       -3.3039823746       -1.6563227534
 O         -2.2725400970       -0.9131892821       -1.9966090133
