  62
        -98.93817987
 C          1.6441280054        1.4528157510        0.2822132265
 C          1.8058547547        0.2146949577        0.9543162079
 C          3.0857492301       -0.4927859772        0.7733263590
 C          4.0376397695        0.0641544384        0.0015957678
 C          5.4563794522       -0.3646488024       -0.3118344486
 C          5.9578859487       -1.7499074633        0.0852306912
 C          5.3451873461       -2.8978924158       -0.7173986524
 H          5.7506244025       -2.8637276399       -1.7317642803
 H          5.6594917010       -3.8412147159       -0.2658396949
 C          3.8233243920       -2.8800631134       -0.8313531988
 H          3.5258931151       -3.7170343651       -1.4687339394
 H          3.5035609945       -1.9644438367       -1.3327768426
 C          3.0667760646       -3.0123952711        0.4880357865
 H          3.3848303884       -3.9196532799        1.0056984047
 H          2.0069395663       -3.1188675955        0.2431923434
 C          3.2061841031       -1.8258021350        1.4556295381
 H          2.3835208305       -1.8743843017        2.1756663478
 H          4.1331479786       -1.8876902900        2.0209004092
 H          5.8201654027       -1.9065506026        1.1511311040
 H          7.0358487255       -1.7571679818       -0.0975355293
 H          6.0979263936        0.3859772007        0.1629539232
 H          5.5804217835       -0.2332310329       -1.3915735792
 O          3.8326683996        1.2515873011       -0.6366769465
 C          2.6452253226        1.9604325769       -0.5441847446
 O          2.6349823639        2.9940589011       -1.2409314801
 O          0.9148740691       -0.2769997543        1.6977637180
 C          0.3279196030        2.1762572591        0.5027658979
 C         -0.6862717228        1.8376800296       -0.5640395745
 C         -0.4054554242        2.0076202101       -1.9155096245
 C         -1.3580334792        1.6985116016       -2.8690035464
 C         -2.5980849233        1.2084847149       -2.4975260848
 C         -2.8916374299        1.0423299343       -1.1489005944
 C         -1.9360690792        1.3640062779       -0.1942385509
 H         -2.1811068311        1.2433917489        0.8492883307
 N         -4.1518100178        0.5792477907       -0.7467197268
 S         -4.3502523040       -0.4452277956        0.5588580644
 O         -5.7181816605       -0.8997538351        0.4411612573
 O         -4.0116931369        0.2390464670        1.7803895613
 C         -3.2414481270       -1.8092464482        0.2626302178
 C         -1.9849332135       -1.8265644147        0.8311084208
 C         -1.1376379462       -2.8858193576        0.5470611137
 C         -1.5528644741       -3.9025824032       -0.2971025790
 C         -2.8212127824       -3.8724328710       -0.8587483238
 C         -3.6728631157       -2.8169137529       -0.5799307555
 H         -4.6711214511       -2.7640471015       -0.9834863121
 H         -3.1456730890       -4.6669063558       -1.5113928215
 H         -0.8871065366       -4.7231943552       -0.5144403793
 H         -0.1549936345       -2.8900226236        0.9916539384
 H         -1.6644847397       -1.0309873621        1.4833512538
 H         -4.7722206267        0.3316023565       -1.5032820775
 H         -3.3374041573        0.9647949682       -3.2451248851
 H         -1.1306611520        1.8356383694       -3.9154542621
 H          0.5619390300        2.3867390115       -2.2081185279
 H         -0.0592553681        1.7895298778        1.4560292950
 C          0.4656058336        3.6815649281        0.6250359299
 C         -0.6109534936        4.4516182254        1.3266553162
 C          0.7347422476        4.2899218314        1.9668826860
 H          1.3893195815        5.1467712826        2.0211249458
 H          0.8195596052        3.6222788944        2.8122156302
 H         -0.8839611265        5.4219276945        0.9412228171
 H         -1.4397424105        3.8944790263        1.7381577067
 H          0.9369073525        4.1416576915       -0.2334757984
