  62
        -98.93689977
 C          2.6288314184        1.2525058417        0.1396616880
 C          2.6083138397        0.2707521787       -0.8772994189
 C          3.7703181195       -0.6357083986       -0.9309412279
 C          4.7671417314       -0.4756957550       -0.0433842900
 C          6.0011913085       -1.3212055327        0.1093016094
 C          5.7765655142       -2.4229356499        1.1590119535
 C          5.1600096935       -3.7126284617        0.6185347350
 H          5.9001528870       -4.2355803982        0.0091855124
 H          4.9343638743       -4.3490592286        1.4772808695
 C          3.8843434381       -3.5335948484       -0.2088639117
 H          3.3538084880       -4.4877054621       -0.2154983331
 H          3.2302329586       -2.8047614704        0.2735324657
 C          4.1604385158       -3.1093943437       -1.6590017378
 H          5.2212960922       -3.2399533461       -1.8721614596
 H          3.6241789549       -3.7752472640       -2.3382499843
 C          3.7343075375       -1.6774460419       -2.0156731813
 H          2.6943705741       -1.6817685080       -2.3572656396
 H          4.3383219756       -1.3247939015       -2.8583887837
 H          6.7364029178       -2.6728223677        1.6156385905
 H          5.1386408851       -2.0108431506        1.9452090199
 H          6.3013025801       -1.7422906065       -0.8455377730
 H          6.7915289010       -0.6573403856        0.4657984025
 O          4.7506468300        0.4935900953        0.9135722275
 C          3.6882886299        1.3682961941        1.0386838738
 O          3.7996539519        2.1889408259        1.9721791638
 O          1.6649776503        0.1482226771       -1.7019583372
 C          1.4645368038        2.2159563892        0.2906634996
 C          0.2011105407        1.4324720677        0.5529825945
 C          0.1648844561        0.5850795002        1.6580745251
 C         -0.9602877228       -0.1651278352        1.9369982336
 C         -2.0741416716       -0.0934003275        1.1176015777
 C         -2.0529294868        0.7539823177        0.0193909583
 C         -0.9225262838        1.5176695498       -0.2515783050
 H         -0.9219175106        2.1689406996       -1.1114233309
 N         -3.1649982486        0.8180894885       -0.8309564490
 S         -4.7150559350        0.8219409055       -0.2039776144
 O         -5.5370016268        1.3975430713       -1.2459845118
 O         -4.7674413431        1.4736452382        1.0842617966
 C         -5.1194224903       -0.9039004354       -0.0325148439
 C         -4.8838201048       -1.7425879608       -1.1042202510
 C         -5.2089103381       -3.0845302100       -0.9874591470
 C         -5.7651565711       -3.5620194280        0.1899464991
 C         -5.9994574100       -2.7064540705        1.2553313095
 C         -5.6748503719       -1.3632412262        1.1456298446
 H         -5.8320913385       -0.6634545153        1.9510082696
 H         -6.4318965945       -3.0794535019        2.1698413434
 H         -6.0166710182       -4.6071986082        0.2776688828
 H         -5.0265003943       -3.7530403229       -1.8134753621
 H         -4.4492124041       -1.3355429333       -2.0019795834
 H         -3.0657505852        1.4554277796       -1.6067009029
 H         -2.9530459140       -0.6807318542        1.3270448315
 H         -0.9713917532       -0.8178016020        2.7968996122
 H          1.0381330236        0.5236688234        2.2940526189
 H          1.6824076328        2.8168961757        1.1853155255
 C          1.3848533567        3.1388405350       -0.9067045895
 C          0.7200130761        4.4758035673       -0.7800614630
 C          2.2102202173        4.3887783404       -0.9134220752
 H          2.6648241738        4.7015753000       -1.8414444835
 H          2.8168069921        4.5878955059       -0.0418655920
 H          0.1528525081        4.8538779871       -1.6175432131
 H          0.3112039647        4.7412932640        0.1833582319
 H          1.2862758454        2.6028099917       -1.8436138088
