  62
        -98.94170312
 C         -2.7806414419       -0.5678024704       -0.2991519827
 C         -2.1067154375        0.3407332659       -1.1516332693
 C         -2.3453934254        1.7679548083       -0.8900578612
 C         -3.1991328242        2.1338125312        0.0817611112
 C         -3.4986410329        3.5492912402        0.4794767194
 C         -2.5714223138        4.0200799722        1.6083307077
 C         -1.0895264725        3.7423593216        1.3528847221
 H         -0.5313766568        4.1558341823        2.1961283649
 H         -0.9129800755        2.6633968115        1.3588810869
 C         -0.5459451055        4.3313480622        0.0439721640
 H         -1.2142133064        5.1144908585       -0.3173869742
 H          0.4212788564        4.7949642076        0.2485682029
 C         -0.3187841248        3.3011021670       -1.0642020795
 H          0.2569557915        2.4620123846       -0.6620616560
 H          0.2836779616        3.7719902362       -1.8461489489
 C         -1.5884221347        2.7555978374       -1.7321086105
 H         -2.2328985771        3.5853416667       -2.0298281796
 H         -1.2867284414        2.2136171664       -2.6330275469
 H         -2.7210098071        5.0917717093        1.7526314172
 H         -2.8594938186        3.5091724092        2.5300620054
 H         -3.3883569752        4.1958475708       -0.3888093120
 H         -4.5318131712        3.5958748192        0.8280517828
 O         -3.8677219077        1.2352467673        0.8486356883
 C         -3.6486495132       -0.1224142797        0.7034359665
 O         -4.2908851328       -0.8298222887        1.5058512227
 H         -0.0607535815       -1.4521454867       -1.1284004988
 C         -0.0672969879       -1.9783957793       -0.1854862320
 C         -1.2755840395       -2.4019643736        0.3493767396
 C         -1.2628476135       -3.0519583979        1.5779124722
 C         -0.0729172289       -3.2589090535        2.2550293541
 C          1.1260572041       -2.8085744842        1.7305872279
 C          1.1200335668       -2.1582604985        0.5046822385
 N          2.3330452287       -1.6357226922       -0.0188478228
 S          2.7941267566       -0.2248458064        0.8016989757
 O          3.0875215626       -0.5795380886        2.1674978512
 O          1.8047737321        0.8145664217        0.6141809303
 C          4.3009336745        0.1847858733       -0.0567367178
 C          5.4375159706       -0.5468720995        0.2294981693
 C          6.6054771263       -0.2656433933       -0.4606437824
 C          6.6164020598        0.7356220370       -1.4206782978
 C          5.4673799533        1.4610444304       -1.6964513711
 C          4.2948622543        1.1833574721       -1.0107780268
 H          3.3786123259        1.7238169614       -1.1895334326
 H          5.4784887946        2.2397251577       -2.4421163306
 H          7.5264713680        0.9530955060       -1.9571415034
 H          7.5013467192       -0.8267371531       -0.2491893058
 H          5.3815199578       -1.3099148789        0.9877696913
 H          2.2045999162       -1.3776777245       -0.9910918111
 H          2.0538596820       -2.9261436578        2.2658096455
 H         -0.0813308025       -3.7629045228        3.2097981384
 H         -2.1988008109       -3.3706598357        2.0142780628
 C         -2.5729831766       -2.0763644741       -0.3517254997
 H         -3.3926636223       -2.5113697063        0.2351921849
 C         -2.6272798137       -2.6510554257       -1.7526559674
 C         -2.8899727935       -4.1161584740       -1.9226985912
 C         -3.9407928058       -3.1169794107       -2.3012899543
 H         -4.1473516710       -2.9536564572       -3.3482703343
 H         -4.8093114882       -3.0230126334       -1.6655286165
 H         -2.3739900601       -4.6434204029       -2.7102204005
 H         -3.0470172837       -4.7021244281       -1.0296999195
 H         -1.9436576742       -2.1766002380       -2.4434481494
 O         -1.3403964000        0.0053961509       -2.0953055958
