  62
        -98.94629381
 C         -1.4762161200       -1.1414031004       -0.0102646495
 C         -2.4615059096       -0.7709631607        0.9418875010
 C         -3.1786720498        0.4835368193        0.6817868915
 C         -2.8529980204        1.2128240595       -0.4005022985
 C         -3.5238506907        2.4917850095       -0.8083263280
 C         -4.6981835311        2.2239239595       -1.7600309976
 C         -5.6563443208        1.1390036893       -1.2684367273
 H         -6.4601808211        1.0580394293       -2.0034148370
 H         -5.1341207606        0.1795138994       -1.2575515877
 C         -6.2572120502        1.4038620790        0.1191773030
 H         -6.1481949902        2.4583551190        0.3752292531
 H         -7.3272737202        1.1885676189        0.0838999234
 C         -5.6673078696        0.5461973589        1.2404264426
 H         -5.6912802296       -0.5064211711        0.9471936824
 H         -6.3052354892        0.6542377287        2.1216582329
 C         -4.2359571395        0.8965465390        1.6663604720
 H         -4.1679060695        1.9650409390        1.8800364221
 H         -4.0192418890        0.3473301089        2.5870872918
 H         -5.2455766213        3.1571881195       -1.9042968972
 H         -4.2967731815        1.9130250897       -2.7274567078
 H         -3.8752848604        3.0112431593        0.0809796622
 H         -2.7928344310        3.1201617596       -1.3203023383
 O         -1.8907533307        0.8378499297       -1.2795548490
 C         -1.1822640405       -0.3448828202       -1.1167390295
 O         -0.3433313509       -0.5487321000       -2.0154636499
 O         -2.7265699291       -1.4593624409        1.9621784810
 C         -0.6897419997       -2.4168094204        0.2535911800
 C          0.6976164504       -2.0057966403        0.6795809494
 C          0.9640317510       -1.7544424305        2.0224167893
 C          2.1974721911       -1.2721084904        2.4206117089
 C          3.1812082207       -1.0015236701        1.4852833485
 C          2.9171678001       -1.2353896399        0.1424378886
 C          1.6956982400       -1.7619476500       -0.2516969910
 H          1.5042564896       -1.9283135499       -1.2996338609
 N          3.8822208297       -0.8867801097       -0.8227279618
 S          4.4948858895        0.6677097004       -0.6901946918
 O          4.7964888989        1.0855736306       -2.0417178418
 O          5.6143178099        0.6585530304        0.2200757277
 C          3.1809431697        1.6626167301        0.0012482489
 C          3.4130777901        2.3743801300        1.1611251490
 C          2.3882466203        3.1338473898        1.7017050495
 C          1.1511936900        3.1674142297        1.0770447301
 C          0.9359814496        2.4515218099       -0.0900683600
 C          1.9566329695        1.6904789501       -0.6364893605
 H          1.7927043391        1.1180087802       -1.5362755006
 H         -0.0258681706        2.4671060998       -0.5778968896
 H          0.3486306101        3.7512796696        1.4995537505
 H          2.5543779306        3.6919610796        2.6089772995
 H          4.3877226904        2.3139161100        1.6175834985
 H          3.5715768893       -1.0594872196       -1.7686172517
 H          4.1411027408       -0.6020952901        1.7706433182
 H          2.3917020215       -1.0906872705        3.4665156088
 H          0.1835049113       -1.9249042707        2.7500957997
 H         -1.1849664193       -2.8915371506        1.1105560601
 C         -0.7119434501       -3.3791409502       -0.9149180202
 C         -0.2601861298       -4.7921204702       -0.7012042306
 C         -1.7115703000       -4.4950946103       -0.9254565999
 H         -2.1574310303       -4.7782364602       -1.8672735898
 H         -2.3844909396       -4.5727487905       -0.0840614597
 H          0.2929310399       -5.2822455200       -1.4877447309
 H          0.0532035006       -5.0685709003        0.2941413392
 H         -0.4852368205       -2.9149839600       -1.8664711902
