  62
        -98.94315704
 C          2.5844726082       -0.0866350309       -0.3665082525
 C          2.6772556845       -1.1039910166        0.6191810044
 C          2.0932065160       -2.4030844082        0.2790526778
 C          1.5148393442       -2.5735070886       -0.9228927933
 C          0.8285507032       -3.8212397216       -1.4078797824
 C         -0.6246523996       -3.9342883418       -0.9256388944
 C         -0.7919653857       -4.3261292223        0.5435501731
 H         -0.1742192151       -5.1987912893        0.7600788796
 H         -1.8345395233       -4.6214518650        0.6776979997
 C         -0.4694229432       -3.2010034746        1.5369011702
 H         -1.2431871344       -3.1675549277        2.3081415302
 H         -0.4950251101       -2.2395140389        1.0181645672
 C          0.8707089961       -3.3487945699        2.2581917535
 H          0.8423935195       -4.2274847830        2.9075124826
 H          1.0169108195       -2.4667849442        2.8870355274
 C          2.0855220186       -3.4718774022        1.3304365514
 H          2.1067954793       -4.4576656487        0.8659744706
 H          2.9886540218       -3.3479866177        1.9336028125
 H         -1.1173016810       -4.6898284623       -1.5426980861
 H         -1.1221625432       -2.9767097261       -1.1029498137
 H          1.3914203412       -4.7015222660       -1.0952956239
 H          0.8298540351       -3.7741900659       -2.4990705212
 O          1.5016761450       -1.5989484876       -1.8673366560
 C          1.9887610956       -0.3247903641       -1.6056918267
 O          1.8483482292        0.4600328816       -2.5661939445
 O          3.2275260269       -0.9268108951        1.7403909472
 C          3.0324994980        1.2977273660        0.0731484584
 C          1.8700622785        1.9559560236        0.7827945596
 C          2.0145017273        2.5226964742        2.0431498685
 C          0.9167917894        3.0334321387        2.7140036914
 C         -0.3475351108        2.9525695737        2.1593667123
 C         -0.4994413131        2.3954537008        0.8941207098
 C          0.6110127676        1.9408680246        0.2006726686
 H          0.4727909930        1.5256928239       -0.7864936395
 N         -1.7625063152        2.2641615682        0.2971333488
 S         -2.0460582793        0.8561649863       -0.6031035760
 O         -1.3065618522       -0.2514796431       -0.0463506031
 O         -1.8295345643        1.1552506779       -1.9966233399
 C         -3.7924326464        0.6265990347       -0.3176306374
 C         -4.2088960934       -0.3054007892        0.6135666614
 C         -5.5667281532       -0.4582444037        0.8478925709
 C         -6.4790912054        0.3220060419        0.1538186983
 C         -6.0458292743        1.2532211061       -0.7786760964
 C         -4.6900780085        1.4094646572       -1.0194500107
 H         -4.3058176482        2.1106128482       -1.7419816250
 H         -6.7579962024        1.8558561229       -1.3187557911
 H         -7.5348067620        0.2014709471        0.3383989288
 H         -5.9059095559       -1.1840411289        1.5692710144
 H         -3.4617637398       -0.8926631698        1.1234880692
 H         -2.5254579543        2.4725495709        0.9266724180
 H         -1.2105991469        3.3106178510        2.6997534432
 H          1.0423778682        3.4701653201        3.6931017805
 H          2.9890053414        2.5359099771        2.5080709373
 H          3.8251833896        1.1328932814        0.8167874857
 C          3.5782738508        2.1905934483       -1.0200818186
 C          4.5163830345        3.2996998916       -0.6507713816
 C          5.0271378749        2.1004100583       -1.3900573451
 H          5.2966075437        2.2048766377       -2.4299885507
 H          5.6356184207        1.3889730871       -0.8509956786
 H          4.4372734906        4.2356978606       -1.1816842597
 H          4.7852369132        3.4039992471        0.3893295198
 H          2.8720083548        2.3717118274       -1.8197904649
