  62
        -98.94326269
 C         -1.6467688734       -1.2013846168       -0.2976163434
 C         -0.5766235762       -1.6708819736       -1.0908746526
 C          0.3531435435       -2.6194619837       -0.4520671464
 C          0.1448210450       -2.9654189747        0.8314716310
 C          0.9800461121       -3.9148020812        1.6463561033
 C          2.2660146780       -3.2644202216        2.2002144653
 C          2.8617864797       -2.1577376839        1.3295971081
 H          2.0783815341       -1.4297434747        1.1088949761
 H          3.6083791467       -1.6261901656        1.9272366263
 C          3.5453356489       -2.6260327901        0.0435332008
 H          4.4970689638       -3.0926829317        0.3113247672
 H          3.7684285132       -1.7420402051       -0.5594216494
 C          2.7703543204       -3.6303148652       -0.8069653481
 H          2.6421149278       -4.5549381455       -0.2500127346
 H          3.3925064292       -3.8703998049       -1.6744372439
 C          1.4319280307       -3.1469731275       -1.3649096861
 H          1.6141747533       -2.3425387391       -2.0851787868
 H          0.9874978541       -3.9681270537       -1.9413767622
 H          3.0122807235       -4.0422528474        2.3698248600
 H          2.0229864923       -2.8125558933        3.1643659956
 H          1.2078226782       -4.7896615806        1.0416939994
 H          0.3640202059       -4.2408765530        2.4867770265
 O         -0.8736362641       -2.4550482976        1.5752067885
 C         -1.7817576462       -1.5557982553        1.0442863724
 O         -2.6548555460       -1.1707925928        1.8462139632
 O         -0.4011933023       -1.3134884771       -2.2883402650
 C         -2.6359602764       -0.2182959254       -0.9010802408
 C         -2.5492780462        1.0841666521       -0.1449467615
 C         -3.6432791989        1.7493584695        0.3906604532
 C         -3.4605211195        2.9042016435        1.1326555399
 C         -2.1934749454        3.4014928920        1.3740535001
 C         -1.0923391048        2.7504485636        0.8273424117
 C         -1.2838205804        1.6260843323        0.0440041617
 H         -0.4297314623        1.1273872246       -0.3878011779
 N          0.2111227351        3.2179241756        1.0468204535
 S          1.4884165407        2.1379976816        1.1692320525
 O          1.0632096981        0.8386173044        1.6308806431
 O          2.4558440273        2.8271426722        1.9990044567
 C          2.1279010204        2.0602875774       -0.4901199184
 C          2.1317972987        0.8691309559       -1.1854479738
 C          2.6383811678        0.8451410915       -2.4752598661
 C          3.1332437592        2.0080072940       -3.0438031885
 C          3.1279274094        3.1977227257       -2.3304317012
 C          2.6210224565        3.2271071851       -1.0419135277
 H          2.6049575697        4.1274029646       -0.4507618699
 H          3.5150107926        4.0999044742       -2.7758724828
 H          3.5251710955        1.9845527627       -4.0483989216
 H          2.6299022815       -0.0803756532       -3.0289704018
 H          1.7305303454       -0.0167219050       -0.7181706338
 H          0.2866396237        3.9690693596        1.7168608076
 H         -2.0525035358        4.2805560360        1.9844556489
 H         -4.3175311005        3.4109738424        1.5500981041
 H         -4.6361062353        1.3570341802        0.2440584519
 H         -2.2883324243       -0.0467202866       -1.9306543170
 C         -4.0275695093       -0.8112494209       -0.9441268187
 C         -5.0137243654       -0.3449647197       -1.9721012772
 C         -4.4002416753       -1.7071474721       -2.0859396111
 H         -5.0152404387       -2.5710021487       -1.8829418933
 H         -3.6548788395       -1.8720762949       -2.8501205388
 H         -6.0542745807       -0.2746813710       -1.6934400970
 H         -4.6894079279        0.4158858976       -2.6655764706
 H         -4.3970463900       -1.0760467349        0.0402987963
