  62
        -98.94517049
 C          2.4662757788        1.2151870406        0.0079774890
 C          3.1956575890        0.4671887611        0.9622150991
 C          3.9454672092       -0.6839931790        0.4426597894
 C          3.8928384990       -0.9627563194       -0.8728812505
 C          4.5676128092       -2.1323292495       -1.5282901702
 C          3.6388846394       -3.3534644497       -1.5801206296
 C          2.9749450496       -3.6812124994       -0.2425701994
 H          2.2880728295       -2.8727413094        0.0210212504
 H          2.3673643398       -4.5767992995       -0.3913343290
 C          3.9575064698       -3.9135865188        0.9141409406
 H          4.9526908498       -4.1177448287        0.5178768705
 H          3.6406033601       -4.7994819787        1.4684460409
 C          4.0388326498       -2.7636178484        1.9198590401
 H          4.5842707600       -3.1187420480        2.7981414502
 H          3.0316350998       -2.4939071285        2.2484297202
 C          4.7430329395       -1.4929928485        1.4269370596
 H          4.8980649595       -0.8427892481        2.2928940793
 H          5.7190595995       -1.7515182084        1.0119054195
 H          2.8516340692       -3.1605654001       -2.3129955695
 H          4.2173944895       -4.2139186898       -1.9211321794
 H          4.8345189290       -1.8475804199       -2.5473272203
 H          5.4750928393       -2.3759850392       -0.9792587502
 O          3.1719451388       -0.2284189299       -1.7581386406
 C          2.4298037286        0.8685364901       -1.3429395209
 O          1.8017174684        1.4377155297       -2.2547838510
 O          3.2145433192        0.7460153415        2.1921449190
 C          1.6594455186        2.4138855106        0.4754018187
 C          0.1939224486        2.1734722003        0.2074614390
 C         -0.6241026716        3.0668942799       -0.4701281212
 C         -1.9550465616        2.7612907495       -0.6988598509
 C         -2.5000964113        1.5721464296       -0.2516182604
 C         -1.6921700411        0.6731870600        0.4332197398
 C         -0.3604094111        0.9817532803        0.6596978695
 H          0.2703242391        0.2783670406        1.1904352196
 N         -2.2380281508       -0.5313690899        0.9117225703
 S         -3.1302591408       -1.4759686105       -0.1524968392
 O         -3.0509262804       -2.8182713503        0.3824712312
 O         -2.6922608210       -1.3023782409       -1.5181988994
 C         -4.7933857208       -0.8713099307        0.0441857208
 C         -5.3165463807       -0.8082968304        1.3209987508
 C         -6.6112674707       -0.3448749105        1.4910448609
 C         -7.3580963510        0.0412247889        0.3878113508
 C         -6.8199308511       -0.0323863214       -0.8877881092
 C         -5.5244264611       -0.4933686312       -1.0648315192
 H         -5.0609641712       -0.5604241815       -2.0363658493
 H         -7.4017296113        0.2679362382       -1.7443559392
 H         -8.3654500910        0.4021160288        0.5229814009
 H         -7.0328150106       -0.2854837003        2.4815338209
 H         -4.7039006405       -1.1198852100        2.1503537209
 H         -1.5754448906       -1.1010516696        1.4181797804
 H         -3.5341080413        1.3297085893       -0.4345280602
 H         -2.5775457618        3.4611441292       -1.2351717011
 H         -0.2178298319        3.9970579998       -0.8311120416
 H          1.8041770488        2.4546191510        1.5653592786
 C          2.1932947383        3.6920729505       -0.1341431719
 C          2.0053036281        4.9983245607        0.5761780577
 C          3.3632792283        4.3683974010        0.5130472477
 H          4.1136756681        4.8170452309       -0.1203898326
 H          3.7629048685        3.9178327214        1.4099000878
 H          1.8251012979        5.8845589005       -0.0131047426
 H          1.4828356983        4.9818637010        1.5205656778
 H          2.1566482781        3.6846537701       -1.2175780919
