  62
        -98.94728179
 C         -2.3172800176       -0.6367689874        0.2264560310
 C         -1.6184162190        0.0344472038       -0.8063995439
 C         -1.8131722148        1.4892260949       -0.8722864145
 C         -2.5171712465        2.1133032927        0.0882539567
 C         -2.8140389122        3.5864865915        0.1609891952
 C         -1.6746212236        4.4222345060        0.7592632188
 C         -0.4773658548        4.6443061977       -0.1652031540
 H         -0.8285178593        5.0092627646       -1.1314337137
 H          0.1288319449        5.4343933456        0.2825677640
 C          0.4073935327        3.4071401460       -0.3716080666
 H          0.2288750357        2.6811912693        0.4258067671
 H          1.4590701781        3.6969426736       -0.2959059122
 C          0.2302682250        2.7155159508       -1.7222935232
 H          0.8926616572        1.8480108041       -1.7400883589
 H          0.5383828745        3.3927633077       -2.5226932527
 C         -1.1969534801        2.2375247539       -2.0176339987
 H         -1.8261523190        3.0880626653       -2.2823494864
 H         -1.1551870994        1.5559535745       -2.8712238084
 H         -1.3355917495        3.9434403589        1.6813506376
 H         -2.0894152954        5.3982076757        1.0229076082
 H         -3.6931929958        3.6933543441        0.8003623798
 H         -3.0593442591        3.9623987369       -0.8330468536
 O         -3.0775286960        1.4460548149        1.1323626852
 C         -2.9955775150        0.0671539441        1.2237684114
 O         -3.5613708246       -0.4120198182        2.2288206079
 O         -0.8831417854       -0.5410260996       -1.6499743597
 C         -2.2513716466       -2.1471521405        0.3896404672
 C         -0.8146611953       -2.5967193392        0.2934810229
 C         -0.3505793106       -3.5713335092       -0.5798606579
 C          0.9938937486       -3.9020964599       -0.6075532013
 C          1.9029194357       -3.2514553125        0.2066958728
 C          1.4467164919       -2.2711109907        1.0809923853
 C          0.0952863847       -1.9785957838        1.1424381449
 H         -0.2486124804       -1.2183092466        1.8293177570
 N          2.3297459293       -1.5400746038        1.9044441188
 S          2.4333160041        0.1087486583        1.6116154495
 O          3.4035456392        0.6016253581        2.5661337715
 O          1.1230934560        0.7022845669        1.6716927703
 C          3.1235035945        0.2191205867       -0.0304807896
 C          2.3561378437       -0.1484744617       -1.1184169544
 C          2.9370411977       -0.1283271814       -2.3784838763
 C          4.2595863324        0.2565951279       -2.5302582812
 C          5.0154941746        0.6230877417       -1.4265851622
 C          4.4458927950        0.5980834878       -0.1643044561
 H          4.9935150755        0.8698003540        0.7237063288
 H          6.0440119830        0.9238973428       -1.5447760789
 H          4.7021504234        0.2708807050       -3.5137577158
 H          2.3401528047       -0.4134503652       -3.2300697117
 H          1.3241724215       -0.4367229913       -0.9875354475
 H          3.2638563567       -1.9257078177        1.9421881636
 H          2.9551347222       -3.4895326432        0.1629146242
 H          1.3416128199       -4.6622250273       -1.2903102047
 H         -1.0363534398       -4.0572935619       -1.2541884428
 H         -2.5862372521       -2.3308358300        1.4245515631
 C         -3.1976156038       -2.9211146509       -0.5157302381
 C         -4.4569368847       -2.2924876544       -1.0316856978
 C         -3.3414730336       -2.6199148238       -1.9760834933
 H         -3.4770637727       -3.4471715207       -2.6573808413
 H         -2.7530568042       -1.8116067122       -2.3788156775
 H         -5.3541986291       -2.8923658627       -1.0615369475
 H         -4.6335704476       -1.2548794812       -0.7861813655
 H         -3.2710305728       -3.9642554850       -0.2234674993
