  62
        -98.94593768
 C         -2.1119663871       -1.4921879932        0.0068674519
 C         -1.8357149506       -0.3737157554       -0.8160707660
 C         -2.9005104047        0.6377033737       -0.8928484047
 C         -4.0522223601        0.4374846578       -0.2268140826
 C         -5.1967561410        1.4072413443       -0.1813167499
 C         -5.0687093915        2.3626773109        1.0134934817
 C         -3.6899354233        3.0104506060        1.1421488309
 H         -3.7283217965        3.6869806378        1.9986612474
 H         -2.9532973927        2.2382327270        1.3758527516
 C         -3.2337514533        3.7850764005       -0.1020226004
 H         -4.0933576330        4.0080430969       -0.7351685625
 H         -2.8110071021        4.7398593418        0.2171984546
 C         -2.1608900521        3.0760993094       -0.9307521881
 H         -1.3449588133        2.7589138241       -0.2767200928
 H         -1.7546704288        3.7970927709       -1.6451807831
 C         -2.6356866528        1.8565994877       -1.7309668765
 H         -3.5166837201        2.1202929049       -2.3196438280
 H         -1.8349632653        1.5745628609       -2.4208133686
 H         -5.8306230454        3.1385206405        0.9176839176
 H         -5.2700408205        1.8009594181        1.9287065196
 H         -5.2253633144        1.9725840925       -1.1107331474
 H         -6.1241418817        0.8402122200       -0.0836573363
 O         -4.2900124725       -0.6647144806        0.5299520899
 C         -3.3229467243       -1.6441030142        0.6823174575
 O         -3.6548506703       -2.5855530264        1.4310401747
 H          1.4781734731       -2.4727887581       -0.8944396546
 C          1.4017395124       -1.9788424729        0.0610996378
 C          0.1938014205       -1.9591911329        0.7373815007
 C          0.1290010556       -1.3039875577        1.9650088516
 C          1.2443423408       -0.6888339477        2.4994545231
 C          2.4486441165       -0.7026177661        1.8164637975
 C          2.5207302962       -1.3453788115        0.5886499610
 N          3.7311801678       -1.3460419981       -0.1224535657
 S          4.6305805676        0.0632112730       -0.1591920589
 O          5.3786311361       -0.0021836286       -1.3957086621
 O          5.4229715337        0.1604035537        1.0425339161
 C          3.4565884640        1.4068897273       -0.2113045038
 C          3.5737819852        2.4421552919        0.6942001258
 C          2.6635934666        3.4854096543        0.6422643397
 C          1.6537826907        3.4733620963       -0.3074710709
 C          1.5503363917        2.4268599309       -1.2106614615
 C          2.4598655015        1.3836061303       -1.1660455786
 H          2.3863076574        0.5590700406       -1.8561040241
 H          0.7571606529        2.4027431982       -1.9399687262
 H          0.9412720735        4.2825646993       -0.3443925193
 H          2.7414096874        4.3005653831        1.3437084410
 H          4.3693437378        2.4072297439        1.4209727574
 H          3.6710842474       -1.7665498137       -1.0380936592
 H          3.3294888747       -0.2288318507        2.2184831834
 H          1.1779885926       -0.1892799506        3.4540763851
 H         -0.8155551765       -1.2817498890        2.4920366340
 C         -1.0658409271       -2.5793597427        0.1847647686
 H         -1.4680670725       -3.2695442165        0.9395774688
 C         -0.8682883030       -3.3377673322       -1.1107128919
 C         -0.3100857052       -4.7282661139       -1.0876346201
 C         -1.7569070511       -4.5060571643       -1.4090077733
 H         -2.0892375256       -4.6549801703       -2.4255123115
 H         -2.4957107744       -4.7705348310       -0.6664984092
 H         -0.0634252200       -5.1512282736       -0.1255445004
 H          0.3496120814       -5.0352379372       -1.8853664755
 H         -0.6037072961       -2.6925189090       -1.9404931536
 O         -0.7628512923       -0.2251569682       -1.4556784291
