  62
        -98.94793948
 C         -1.1470545600       -1.1935977595        0.4712892402
 C         -1.5339517198       -0.4724882897       -0.6837724399
 C         -2.2997067997        0.7571540705       -0.4354445802
 C         -2.4788917497        1.1908037107        0.8252037397
 C         -3.1903284696        2.4518840409        1.2347740494
 C         -4.7122431196        2.2942940811        1.3579622294
 C         -5.4598657696        2.1532966809        0.0313130894
 H         -6.5236117796        2.2631436711        0.2510835193
 H         -5.1787076894        2.9721633208       -0.6314876508
 C         -5.2384304897        0.8108867107       -0.6799373704
 H         -4.8283404298        0.0871744908        0.0284411898
 H         -6.1988870597        0.4160508708       -1.0186313703
 C         -4.3223773596        0.8835221704       -1.9017637103
 H         -4.7905232395        1.4986455003       -2.6732384805
 H         -4.2050180097       -0.1268302197       -2.3013451401
 C         -2.9235761096        1.4454915703       -1.6129817704
 H         -2.2929166996        1.2530464701       -2.4843820403
 H         -2.9842631895        2.5209724503       -1.4451707506
 H         -4.9229235997        1.4279655812        1.9895580995
 H         -5.0910442195        3.1800347112        1.8731996392
 H         -2.7917771596        2.7295555810        2.2132179594
 H         -2.9618721695        3.2507259607        0.5286503293
 O         -1.9988370198        0.5182176809        1.9070953598
 C         -1.3764231600       -0.7121790192        1.7605652001
 O         -1.0740737101       -1.2668403991        2.8373627402
 H          1.5220727500       -1.0199705497        1.2856863003
 C          1.8123385400       -1.4882661199        0.3558068304
 C          0.9158729999       -2.3265808799       -0.2976650795
 C          1.3130613399       -2.9363313602       -1.4798253093
 C          2.5757306500       -2.7013375604       -1.9961704793
 C          3.4620596700       -1.8618386204       -1.3479865894
 C          3.0778382000       -1.2536735901       -0.1571477296
 N          3.9751705101       -0.4278445901        0.5415622103
 S          3.4718423102        1.0210596201        1.1999840600
 O          4.7040362703        1.7132699800        1.5111985399
 O          2.5746866002        0.7935647104        2.3034158600
 C          2.6366240304        1.8652771499       -0.1282502602
 C          3.4088470605        2.4566164297       -1.1099912203
 C          2.7796321306        3.0871926495       -2.1700988404
 C          1.3943284307        3.1137928497       -2.2308126505
 C          0.6342119905        2.5189303700       -1.2363015004
 C          1.2585378704        1.8822851001       -0.1754144403
 H          0.6958639603        1.4059068003        0.6131461198
 H         -0.4422074795        2.5340511301       -1.2799388005
 H          0.9005707808        3.6031370296       -3.0553345306
 H          3.3673017007        3.5543564393       -2.9437924405
 H          4.4821127705        2.4285712895       -1.0140318702
 H          4.8737076701       -0.3200895803        0.0931139503
 H          4.4471022301       -1.6823576706       -1.7507332294
 H          2.8719058600       -3.1773068706       -2.9183848092
 H          0.6342960999       -3.5913935902       -1.9995992093
 C         -0.4387395401       -2.5304905496        0.3371967805
 H         -0.2723420702       -2.8858314594        1.3648243206
 C         -1.3157266602       -3.5290461797       -0.3881759194
 C         -1.1046658404       -4.9975530896       -0.1799992491
 C         -2.3118458203       -4.3242025494        0.3987718207
 H         -3.2769119103       -4.5241098194       -0.0422887493
 H         -2.3464886304       -4.1611668392        1.4666298607
 H         -1.2435003104       -5.6637504398       -1.0178480690
 H         -0.3191282405       -5.2975448196        0.4971015410
 H         -1.6168953701       -3.1884655998       -1.3715534594
 O         -1.2689774098       -0.8327794999       -1.8586592799
