  62
        -98.93685854
 C         -2.4785932940       -1.0208737910        0.4076404909
 C         -2.5519910718        0.1718603285       -0.3458188723
 C         -3.7113117000        1.0506617179       -0.0870426990
 C         -4.6118652041        0.6801789247        0.8423123854
 C         -5.8796387200        1.3847935055        1.2467588010
 C         -7.0076943271        1.2120006747        0.2172290379
 C         -6.5825151624        1.3946739635       -1.2372223526
 H         -5.7920630166        0.6795134166       -1.4718646514
 H         -7.4409495583        1.1469897395       -1.8672444105
 C         -6.1210642567        2.8019907715       -1.6084808650
 H         -6.9259755365        3.5099204316       -1.3987297410
 H         -5.9446085394        2.8107739176       -2.6871401559
 C         -4.8476788852        3.2933693931       -0.9162811164
 H         -4.5056545391        4.1807524488       -1.4568727559
 H         -5.0517392332        3.6131628064        0.1020345789
 C         -3.6897625801        2.3004408422       -0.9338379000
 H         -3.5202058044        1.9649089514       -1.9633378986
 H         -2.7715545564        2.8289417241       -0.6502791642
 H         -7.8048355371        1.9174893018        0.4577206484
 H         -7.4087899499        0.2009130012        0.3223153170
 H         -6.1992597040        0.9367210416        2.1902371755
 H         -5.6809060264        2.4363931327        1.4305185721
 O         -4.4932014082       -0.4802863337        1.5507806226
 C         -3.4396081125       -1.3509564966        1.3616558209
 O         -3.4635616841       -2.3634096422        2.0914214387
 H          0.9348947102       -1.7126831605       -1.3765483234
 C          1.0311658559       -1.2314382488       -0.4158722047
 C         -0.0174141817       -1.2731902382        0.4878843977
 C          0.1444914527       -0.6482426135        1.7221360678
 C          1.3167060284        0.0127828253        2.0317838828
 C          2.3551132951        0.0685924755        1.1177768770
 C          2.2095667467       -0.5595988558       -0.1103690694
 N          3.2514364024       -0.4977312792       -1.0479034596
 S          4.8272308636       -0.7766006180       -0.5537068726
 O          5.5266933141       -1.1923633981       -1.7498927866
 O          4.8789065813       -1.6861812594        0.5673616755
 C          5.4193193041        0.8302305086       -0.0657506557
 C          5.2882679455        1.8737618767       -0.9608581858
 C          5.7559013237        3.1272158657       -0.6000582792
 C          6.3465476260        3.3144563996        0.6408539140
 C          6.4738121288        2.2558472535        1.5269378928
 C          6.0070734865        0.9995704295        1.1724552177
 H          6.0793514202        0.1490625009        1.8316453981
 H          6.9333045640        2.4033457586        2.4911028276
 H          6.7093815482        4.2913829782        0.9189640719
 H          5.6579225248        3.9531499290       -1.2861183663
 H          4.8252339774        1.6881431746       -1.9156013124
 H          3.0495618165       -0.9561571778       -1.9240888584
 H          3.2703487204        0.5874359205        1.3511637901
 H          1.4240915922        0.4940623751        2.9921534997
 H         -0.6684250364       -0.6881036229        2.4350517497
 C         -1.3201966266       -1.9807798253        0.2038967815
 H         -1.4462614948       -2.7711214374        0.9582801734
 C         -1.3951523861       -2.6071008574       -1.1726259319
 C         -0.7703080376       -3.9456042170       -1.4250703594
 C         -2.2621250856       -3.8120104761       -1.3731776385
 H         -2.8206190355       -3.8986896117       -2.2931393577
 H         -2.7828394608       -4.1978284878       -0.5087593162
 H         -0.3065926138       -4.1286076215       -2.3829952150
 H         -0.2747469571       -4.4300967095       -0.5970852003
 H         -1.3723719564       -1.8711658438       -1.9682916487
 O         -1.6943544645        0.4975340846       -1.2083447620
