  62
        -98.94738751
 C          2.5656374358        0.1349513186       -0.3996770029
 C          2.1704847323        0.7047171573        0.8348805248
 C          1.7280205554        2.1052471888        0.7814887668
 C          1.7054570361        2.7446628177       -0.4018585578
 C          1.2516400235        4.1610191790       -0.6069098800
 C         -0.2419125479        4.2327725301       -0.9496022642
 C         -1.1391527127        3.4498969152        0.0094730360
 H         -2.1730984231        3.6289295838       -0.2962765891
 H         -0.9578592549        2.3789997363       -0.1150286822
 C         -0.9708410743        3.8228553121        1.4889823724
 H         -1.9617422122        3.9054942097        1.9401535450
 H         -0.4907364379        4.7990694594        1.5745603614
 C         -0.1932503200        2.7938729947        2.3123592539
 H         -0.5963973585        1.7972862491        2.1169087892
 H         -0.3504230048        3.0148840227        3.3719081692
 C          1.3217614759        2.7543767796        2.0743096783
 H          1.7343763487        3.7638072997        2.1448676367
 H          1.7661824272        2.1436036913        2.8658170052
 H         -0.5422502037        5.2827023195       -0.9554070322
 H         -0.3876732414        3.8294196429       -1.9545956577
 H          1.4554297488        4.7337903753        0.2958947828
 H          1.8243094481        4.5856111267       -1.4337015500
 O          2.0807209165        2.1598260119       -1.5695784248
 C          2.5011280213        0.8409281523       -1.5992151294
 O          2.7990250550        0.4202364299       -2.7376539781
 O          2.2033458319        0.0809123489        1.9283942385
 C          3.0068096074       -1.3166004073       -0.4577172130
 C          1.8932617320       -2.2074435498        0.0395775408
 C          2.1013027937       -3.3171752624        0.8488243671
 C          1.0283508352       -4.0780076198        1.2807611265
 C         -0.2671773058       -3.7429171927        0.9323523253
 C         -0.4838087951       -2.6435788071        0.1094705165
 C          0.5942845680       -1.9035456813       -0.3452665271
 H          0.4139399690       -1.0524259565       -0.9866507913
 N         -1.7827339485       -2.2656169862       -0.2836513508
 S         -2.0908801350       -0.6003260125       -0.3002788930
 O         -1.6429007803       -0.0537292685       -1.5577921960
 O         -1.5625007720        0.0075032650        0.8976691731
 C         -3.8734956276       -0.5974919233       -0.2584422343
 C         -4.5300889271       -0.2561857864        0.9082524167
 C         -5.9160121289       -0.2857011000        0.9302240888
 C         -6.6166174528       -0.6570641186       -0.2072568936
 C         -5.9430639302       -0.9955999571       -1.3719442668
 C         -4.5580447151       -0.9661153565       -1.4013946490
 H         -3.9909863552       -1.2108732967       -2.2844622471
 H         -6.4910699333       -1.2809012206       -2.2553798602
 H         -7.6946778030       -0.6801575948       -0.1872763180
 H         -6.4418891579       -0.0192662789        1.8328049787
 H         -3.9415936836        0.0304164101        1.7650872059
 H         -2.4982316111       -2.7558071546        0.2376465646
 H         -1.1034683875       -4.3229903919        1.2922443138
 H          1.2031940744       -4.9346590301        1.9139591558
 H          3.1022244530       -3.5795521520        1.1503978436
 H          3.1721249192       -1.5407945576       -1.5227040392
 C          4.3103517365       -1.5070760887        0.2901424217
 C          5.2903857283       -2.5520629764       -0.1493251665
 C          5.5895173977       -1.1015834158       -0.3762682916
 H          6.3552436880       -0.6300689322        0.2210206412
 H          5.5196455990       -0.7134343040       -1.3823416044
 H          5.8568407248       -3.0771847898        0.6049112630
 H          5.0292115456       -3.1535076346       -1.0069589099
 H          4.2118043345       -1.3058636277        1.3506400826
