  62
        -98.93561755
 C         -2.1449489885       -0.8256979248       -0.3857818524
 C         -3.3455781653       -0.8750979066        0.3641494923
 C         -4.0399467187        0.4022121660        0.5992967679
 C         -3.5023062193        1.5405731892        0.1228952645
 C         -3.9456647371        2.9834555821        0.2476907633
 C         -5.3478981412        3.3301477857        0.7409639519
 C         -6.4754650141        2.9376631442       -0.2133286166
 H         -7.4277569816        3.1351052471        0.2834990295
 H         -6.4213610489        3.5794982737       -1.0962416328
 C         -6.4567959557        1.4893492437       -0.6954799750
 H         -5.5487784810        1.3067460535       -1.2736702807
 H         -7.3033905448        1.3520782836       -1.3735523816
 C         -6.5661167618        0.4334540804        0.4025644366
 H         -6.7000144787       -0.5358586927       -0.0850165733
 H         -7.4513832434        0.6262503852        1.0115616747
 C         -5.3471060322        0.3175843320        1.3339014703
 H         -5.3870184178        1.0550065533        2.1321387165
 H         -5.3714634634       -0.6711998416        1.8011509356
 H         -5.3766921011        4.4170979974        0.8563122213
 H         -5.5154227265        2.9056950509        1.7264422751
 H         -3.7939202977        3.4281490328       -0.7410422435
 H         -3.2160314493        3.4585584333        0.9131521079
 O         -2.3294552701        1.5418682795       -0.5749306201
 C         -1.6249798761        0.3811723581       -0.8494197552
 O         -0.5847763855        0.5716550759       -1.5092517759
 O         -3.8203661996       -1.9473365109        0.8249941257
 C         -1.3984561058       -2.1295451854       -0.6203726830
 C         -0.1607313238       -2.1096682699        0.2422047444
 C         -0.2401230411       -2.5344367404        1.5652943750
 C          0.8551196270       -2.4399752432        2.4038693662
 C          2.0490095225       -1.9110187295        1.9450752105
 C          2.1341343043       -1.4767361802        0.6294803484
 C          1.0405703913       -1.5927909115       -0.2178368856
 H          1.1136679746       -1.2326404263       -1.2318498898
 N          3.3407462881       -0.9191862149        0.1534020694
 S          3.9837476936        0.3243255448        1.1038218887
 O          4.7066285893       -0.2721259044        2.2000855311
 O          2.9474679145        1.2638537633        1.4733880514
 C          5.1286241204        1.0729486041       -0.0380570988
 C          4.6547349722        2.0201162002       -0.9263624766
 C          5.5349089146        2.5843701866       -1.8361641720
 C          6.8652423806        2.1916829373       -1.8440704542
 C          7.3251588455        1.2395697771       -0.9468622145
 C          6.4505749503        0.6716226581       -0.0339076609
 H          6.7617598437       -0.0666569561        0.6864442050
 H          8.3602789793        0.9387068166       -0.9554924433
 H          7.5470109478        2.6333680682       -2.5535498265
 H          5.1792194188        3.3259154334       -2.5334538504
 H          3.6140418341        2.3024045419       -0.8808470438
 H          3.2301400547       -0.5886960824       -0.7971391215
 H          2.9043274254       -1.8069292221        2.5930333407
 H          0.7784470631       -2.7731263700        3.4281482404
 H         -1.1799909792       -2.9204296069        1.9347012863
 H         -2.0641412856       -2.9167180565       -0.2425247239
 C         -1.1198730609       -2.3882905285       -2.0859107418
 C         -0.6888951105       -3.7581562824       -2.5146621273
 C         -2.0566946833       -3.2582651030       -2.8670546129
 H         -2.2630973731       -2.9983556351       -3.8944984548
 H         -2.9045762622       -3.6759193148       -2.3442799302
 H          0.0454087330       -3.8458978561       -3.3005325515
 H         -0.6067598453       -4.5145813312       -1.7489323494
 H         -0.6934720083       -1.5374035635       -2.6021089437
