  62
        -98.94357343
 C         -1.0312925307       -0.8002938814        0.9319635108
 C         -1.5382046937       -0.7586584531       -0.3913404597
 C         -2.1945083694        0.4964730135       -0.7831148056
 C         -2.2008677385        1.5448198424        0.0574307651
 C         -2.7921259656        2.9012798842       -0.2167843435
 C         -4.3022023761        2.9905043061        0.0437837943
 C         -5.1842235481        2.2745795850       -0.9798039058
 H         -6.2107927248        2.6006722505       -0.8014644197
 H         -4.9090598745        2.5988278193       -1.9839689717
 C         -5.1324221992        0.7424743608       -0.9000022911
 H         -4.7095662532        0.4418459708        0.0612830567
 H         -6.1470754043        0.3405611050       -0.9435787594
 C         -4.3330599483        0.0767696504       -2.0204500232
 H         -4.8212448528        0.2620630628       -2.9798409900
 H         -4.3313439240       -1.0024375763       -1.8471533050
 C         -2.8745105150        0.5436050467       -2.1171141378
 H         -2.3338557992       -0.1318815228       -2.7852086245
 H         -2.8253536503        1.5500342029       -2.5335569983
 H         -4.5077872847        2.5952518997        1.0412223188
 H         -4.5697360432        4.0496813122        0.0437949295
 H         -2.2863221825        3.6028335687        0.4505787093
 H         -2.5784947340        3.1895461856       -1.2469489411
 O         -1.6246176472        1.4952528559        1.2886381214
 C         -1.0384555385        0.3275696522        1.7549233506
 O         -0.5529068406        0.4263886430        2.8995932394
 H          1.5225979708       -0.4519769795        0.4169941054
 C          1.6091295666       -1.4474880744        0.0064473827
 C          0.7370917314       -2.4352006488        0.4478575161
 C          0.8599735904       -3.7131481128       -0.0782371303
 C          1.8181112357       -3.9777210934       -1.0425069372
 C          2.6517244662       -2.9796968060       -1.5126255612
 C          2.5387156596       -1.6971935077       -0.9866968680
 N          3.3625699992       -0.6489128041       -1.4251781965
 S          2.7408268871        0.9028776631       -1.5241442554
 O          1.3474454520        0.9144356240       -1.9032551680
 O          3.6472639961        1.5883633549       -2.4230912886
 C          2.9490441326        1.5675869994        0.1137714114
 C          1.8834126026        2.1894672333        0.7329349137
 C          2.0530983584        2.7061637270        2.0071281874
 C          3.2846616598        2.5970386042        2.6341005428
 C          4.3490017143        1.9782735680        1.9953982452
 C          4.1835759000        1.4571198964        0.7223165182
 H          4.9844945708        0.9672188373        0.1944063412
 H          5.3042627532        1.8968544994        2.4884941311
 H          3.4111887897        2.9954591042        3.6283251763
 H          1.2184887976        3.1719873866        2.5064609836
 H          0.9365285946        2.2388903983        0.2159972206
 H          3.9548790852       -0.8695534614       -2.2125271044
 H          3.3765704958       -3.1843280021       -2.2858729123
 H          1.9019921263       -4.9735644496       -1.4509307988
 H          0.1904038820       -4.4942615533        0.2424119639
 C         -0.2955997603       -2.0191465656        1.4667653821
 H          0.2439612575       -1.6512257175        2.3556542487
 C         -1.1876076710       -3.1542588612        1.9437852285
 C         -2.5943362408       -2.8919982473        2.3907606218
 C         -2.3394124158       -3.6710899471        1.1373486576
 H         -2.5346023150       -4.7336947440        1.1488294695
 H         -2.5325474559       -3.2010233907        0.1867165055
 H         -2.9662818457       -1.8816570672        2.2973811946
 H         -2.9639845903       -3.4152982502        3.2598671830
 H         -0.6324337283       -3.8873506945        2.5210527788
 O         -1.4616631636       -1.7110281460       -1.2091499228
