  62
        -98.93154637
 C         -2.2141005335       -0.7018090537        0.1719939946
 C         -3.5290213519       -1.1233451706        0.4856859806
 C         -4.6427013271       -0.4209952932       -0.1808878984
 C         -4.3547337449        0.5903453310       -1.0206190387
 C         -5.3102233580        1.4722285447       -1.7796776541
 C         -5.9792612843        2.5286716597       -0.8851628591
 C         -6.4671701334        2.0124844688        0.4660308699
 H         -5.6253914667        1.5778184379        1.0082012701
 H         -6.8148159868        2.8729982675        1.0437493151
 C         -7.6085610186        1.0003541090        0.4031459854
 H         -7.9101627661        0.7875039955        1.4319110241
 H         -8.4619032456        1.4541299413       -0.1056784818
 C         -7.2862781390       -0.3296146063       -0.2811495407
 H         -7.2845826755       -0.2241874737       -1.3626892585
 H         -8.0952694840       -1.0248308485       -0.0385209691
 C         -5.9925776839       -0.9893529624        0.1859383807
 H         -5.9816331092       -2.0265245802       -0.1708607985
 H         -6.0009158049       -1.0629547395        1.2793290510
 H         -6.8148434381        2.9658663163       -1.4342593331
 H         -5.2492769643        3.3192788256       -0.6949339693
 H         -4.7221592799        1.9856293595       -2.5436652481
 H         -6.0543556786        0.8654160083       -2.2870755241
 O         -3.0735252415        0.9903020954       -1.2622445451
 C         -1.9763390589        0.3731927885       -0.6840834067
 O         -0.8846288967        0.8780381187       -1.0087501466
 O         -3.7722627847       -2.0513559818        1.3033005979
 C         -1.0635475922       -1.4318715502        0.8394745428
 C         -0.0420672540       -0.4503192044        1.3562247143
 C         -0.4401752757        0.4886097051        2.3046056987
 C          0.4536316448        1.4208524579        2.7927602529
 C          1.7649815309        1.4317725699        2.3517859889
 C          2.1777805391        0.4891498162        1.4174144976
 C          1.2760931510       -0.4459796178        0.9287073160
 H          1.6128948998       -1.1465911301        0.1845209950
 N          3.5229059382        0.4528026649        1.0084381777
 S          3.9746566559       -0.0815380209       -0.5245278596
 O          3.3764677524        0.7329143976       -1.5583178465
 O          3.7518339288       -1.5027171162       -0.6129574126
 C          5.7278751473        0.2382320318       -0.4325675600
 C          6.2549722116        1.3526469519       -1.0566306155
 C          7.6155348035        1.5983111607       -0.9548001515
 C          8.4210569464        0.7316450917       -0.2318405549
 C          7.8778843238       -0.3838564924        0.3884909365
 C          6.5190069594       -0.6357938480        0.2890328407
 H          6.0540721191       -1.4937677388        0.7455975455
 H          8.5078735157       -1.0569091924        0.9473196850
 H          9.4792975957        0.9250163684       -0.1540052378
 H          8.0406749690        2.4626429895       -1.4391350741
 H          5.5910188590        1.9939539894       -1.6140127765
 H          4.0176304580        1.3037933622        1.2401370750
 H          2.4626714520        2.1650792347        2.7271094266
 H          0.1273068737        2.1505392359        3.5187948194
 H         -1.4685320566        0.4863771404        2.6409459631
 H         -1.5238327074       -1.9314277142        1.7092452771
 C         -0.4529233307       -2.5307381478       -0.0173519431
 C         -1.2517448456       -3.2399288131       -1.0682213965
 C         -0.1332242807       -2.3267642171       -1.4668663625
 H          0.7793718551       -2.7570559983       -1.8544885645
 H         -0.3740565794       -1.3685195406       -1.9013277779
 H         -1.1145759613       -4.3044198062       -1.1844069508
 H         -2.2655191265       -2.9073638488       -1.2378642619
 H          0.2447962722       -3.1432201723        0.5465255655
