  62
        -98.94121871
 C         -0.8934979267       -1.6113103575       -0.7935859410
 C         -2.1933917354       -1.6639111282       -0.2320612407
 C         -3.0809702605       -0.5154466430       -0.4782059732
 C         -2.6158423278        0.5166427149       -1.2025601638
 C         -3.2887491571        1.8346970724       -1.4695089896
 C         -2.8942038972        2.8577284384       -0.3886233272
 C         -3.8152062600        2.8864370287        0.8291172746
 H         -3.3798354505        3.5865545052        1.5461417506
 H         -4.7934321324        3.2752996691        0.5369007841
 C         -4.0022813280        1.5336311781        1.5201385492
 H         -3.0364945559        1.0263534267        1.5816125470
 H         -4.3321161156        1.7214934130        2.5441233454
 C         -5.0326813842        0.6339354010        0.8216265475
 H         -5.7555330135        0.2749588410        1.5574356613
 H         -5.5943181526        1.2280582880        0.1008112559
 C         -4.4541191074       -0.6080789928        0.1302401624
 H         -5.1541633394       -0.9416356199       -0.6436691230
 H         -4.3790722601       -1.4238457085        0.8562858138
 H         -1.8767912615        2.6307903618       -0.0551928114
 H         -2.8836113912        3.8562314131       -0.8316184404
 H         -4.3671192700        1.7188733515       -1.5259752003
 H         -2.9209934701        2.1842463802       -2.4364460413
 O         -1.3780274991        0.5124167508       -1.7614014032
 C         -0.4791427831       -0.5213780878       -1.5591883714
 O          0.6183571228       -0.3359217915       -2.1213399636
 O         -2.5947972470       -2.6378029882        0.4637046241
 C          0.0522765710       -2.7379640724       -0.4108382034
 C          0.7909105882       -2.3413654233        0.8474725260
 C          0.8547559303       -3.1801965195        1.9533334635
 C          1.4726389772       -2.7592853590        3.1183274517
 C          2.0007987332       -1.4841982445        3.2164920763
 C          1.9426546104       -0.6399625624        2.1136858022
 C          1.3807761665       -1.0888961321        0.9297507773
 H          1.3615718258       -0.4301138162        0.0775056617
 N          2.4304664002        0.6744709576        2.1605602501
 S          1.5848582380        1.8719842540        1.3410230403
 O          1.9371445315        3.0948199207        2.0376547865
 O          0.1703903470        1.5835799263        1.2756196816
 C          2.3099093596        1.9352676326       -0.2815167786
 C          3.6209035954        1.5413908979       -0.4578991027
 C          4.1864726946        1.6507855290       -1.7176200392
 C          3.4396769331        2.1562047518       -2.7704256454
 C          2.1269640734        2.5523897553       -2.5745888723
 C          1.5541631698        2.4418360693       -1.3183382975
 H          0.5285394684        2.7200477294       -1.1321412053
 H          1.5410340608        2.9349159169       -3.3948806001
 H          3.8803677732        2.2359380895       -3.7518625749
 H          5.2060841860        1.3371729641       -1.8752670035
 H          4.1699636236        1.1447879236        0.3801097443
 H          2.7385716184        0.9899983870        3.0689581343
 H          2.4438666993       -1.1403591883        4.1386441670
 H          1.5169111200       -3.4201605754        3.9706976405
 H          0.3959363300       -4.1565438669        1.9057224554
 H         -0.5896126324       -3.5952557870       -0.1654607329
 C          1.0218365838       -3.1559542562       -1.4969361141
 C          1.6037792615       -4.5363682602       -1.4607162239
 C          0.5969300541       -4.1743759246       -2.5100974940
 H          0.9291556720       -4.0525619252       -3.5297804524
 H         -0.4004497378       -4.5802132989       -2.4220662837
 H          2.6324488927       -4.6673614894       -1.7586586725
 H          1.2891301506       -5.1935576391       -0.6643950520
 H          1.6556527276       -2.3486094632       -1.8388240160
