  62
        -98.94479262
 C         -2.0457443218       -1.3349979119        0.0075872814
 C         -2.6421748966       -0.6830492237        1.1128300234
 C         -3.8195602678        0.1428945250        0.8155611478
 C         -4.2515829342        0.2376985814       -0.4554933552
 C         -5.4027218476        1.0879949084       -0.9075287767
 C         -4.9292969856        2.4888821279       -1.3197795038
 C         -4.0175670111        3.1596860452       -0.2921562615
 H         -3.0811240643        2.6000788789       -0.2282880628
 H         -3.7704768948        4.1523932822       -0.6749753676
 C         -4.6288468087        3.2895071196        1.1101772803
 H         -5.7115920332        3.1724433819        1.0539940687
 H         -4.4307178798        4.2955018852        1.4862595581
 C         -4.0666525583        2.3095557143        2.1417264180
 H         -2.9746364608        2.3600635445        2.1365334443
 H         -4.4028507003        2.6289963258        3.1317315001
 C         -4.4836926502        0.8435593797        1.9675959754
 H         -4.1748092697        0.3020458599        2.8665574135
 H         -5.5702561461        0.7784265845        1.8839947990
 H         -5.8072878904        3.1139219275       -1.4921995877
 H         -4.3804084581        2.4062810990       -2.2608207861
 H         -5.8698978345        0.6050952230       -1.7673854601
 H         -6.1323196235        1.1613583114       -0.1034237780
 O         -3.6493031731       -0.3974931206       -1.4923431206
 C         -2.5243843775       -1.1862703450       -1.2944617136
 O         -2.0603314514       -1.6875143950       -2.3348978587
 H          0.0066127292        0.3172494746        0.4046954504
 C          0.6432089365       -0.2487675531       -0.2642878447
 C          0.3676565095       -1.5945278913       -0.4788731361
 C          1.2022240373       -2.3132282696       -1.3235112263
 C          2.2611670538       -1.6880329179       -1.9607539989
 C          2.5174609298       -0.3444272960       -1.7630692925
 C          1.7012934079        0.3793511949       -0.9016863344
 N          1.9632260105        1.7408622159       -0.6762241327
 S          3.5516009225        2.2090887731       -0.4372210457
 O          3.4747616604        3.4038908787        0.3739334672
 O          4.2115082848        2.3559115219       -1.7105724027
 C          4.3021020653        0.8757942354        0.4808763168
 C          5.3813406090        0.1970934881       -0.0468746643
 C          5.9294989665       -0.8531743987        0.6720561987
 C          5.3884970830       -1.2071727424        1.8980065381
 C          4.3059831335       -0.5130114798        2.4167458490
 C          3.7556799796        0.5392817669        1.7036252788
 H          2.9165547753        1.1006520915        2.0828747570
 H          3.8856799782       -0.7889920218        3.3705829220
 H          5.8117387400       -2.0283096221        2.4545454829
 H          6.7723962641       -1.3932528211        0.2722383257
 H          5.7677178833        0.5033088419       -1.0053027428
 H          1.3455693811        2.1747764181       -0.0067926846
 H          3.3253701306        0.1593051378       -2.2683764679
 H          2.8937139251       -2.2556301305       -2.6257993240
 H          1.0175691602       -3.3606171777       -1.4943220110
 C         -0.8157042280       -2.1943351325        0.2405551225
 H         -0.6212964210       -2.1339821296        1.3217868164
 C         -1.0887098817       -3.6375566956       -0.1237946371
 C         -0.3253585008       -4.7393215844        0.5467458783
 C         -1.7700276084       -4.5196802783        0.8777301627
 H         -2.4975537703       -5.2346551966        0.5238939284
 H         -2.0174346722       -4.0849998606        1.8353264896
 H         -0.0609757476       -5.6105092762       -0.0331971116
 H          0.4110176962       -4.4594949257        1.2845577207
 H         -1.3624408020       -3.7606815974       -1.1653548966
 O         -2.2049637836       -0.7809591213        2.2919492673
