  62
        -98.94630784
 C         -2.5741744240       -0.0110078114       -0.4247554457
 C         -2.1870495889       -0.5809468046        0.8121401967
 C         -1.8766918497       -2.0155340109        0.7830121628
 C         -1.9587030880       -2.6946953687       -0.3756673016
 C         -1.7325070720       -4.1716647024       -0.5586580073
 C         -0.2602548334       -4.5708893132       -0.7214110449
 C          0.5713791047       -4.5091078909        0.5597207948
 H          0.0568198639       -5.0500944938        1.3547466441
 H          1.5088353208       -5.0319524136        0.3604626123
 C          0.8944423278       -3.0845880216        1.0293914259
 H          1.9490058034       -3.0181299071        1.3091752564
 H          0.7526185549       -2.3787269118        0.2069737219
 C          0.0875306854       -2.6014625658        2.2345419872
 H          0.3581592135       -3.1880833721        3.1162946974
 H          0.3681925778       -1.5608148204        2.4178086306
 C         -1.4345353816       -2.6680284748        2.0577765741
 H         -1.7705826480       -3.7051613733        2.0898171291
 H         -1.8971173095       -2.1226728378        2.8845762060
 H         -0.2402050250       -5.5970331617       -1.0962034539
 H          0.1951139080       -3.9276255967       -1.4782172216
 H         -2.1658546883       -4.7127854714        0.2833202227
 H         -2.2685011572       -4.4540379808       -1.4675252300
 O         -2.3095967743       -2.1028025840       -1.5490618801
 C         -2.6038596454       -0.7507971195       -1.6053259193
 O         -2.8873920168       -0.3330786631       -2.7482834864
 O         -2.1275063765        0.0688788751        1.8895183347
 C         -2.9190888861        1.4644622795       -0.5063849193
 C         -1.7564887914        2.3035676936       -0.0327413677
 C         -1.9113370378        3.4683458539        0.7086774110
 C         -0.8031510385        4.1932196866        1.1115199279
 C          0.4749525767        3.7671452868        0.8004491244
 C          0.6398915262        2.6095068658        0.0489520787
 C         -0.4724470798        1.9036514624       -0.3775336946
 H         -0.3340183222        1.0061898302       -0.9625739464
 N          1.9248307890        2.1430344789       -0.3022887804
 S          2.2116659975        0.4961050980       -0.0264750185
 O          1.5739881039       -0.2786812702       -1.0612275218
 O          1.8766760332        0.1684566980        1.3400564668
 C          3.9800809509        0.4448351655       -0.2515420876
 C          4.8098702681        0.3893892832        0.8518373944
 C          6.1826148473        0.3826088291        0.6585471014
 C          6.6987513797        0.4345894964       -0.6273732412
 C          5.8528145589        0.4890439523       -1.7254900624
 C          4.4797322502        0.4945231524       -1.5390112010
 H          3.7826300692        0.5271554411       -2.3601994716
 H          6.2572032600        0.5267449780       -2.7241091639
 H          7.7670374833        0.4301423718       -0.7754794191
 H          6.8423044693        0.3367829037        1.5099693523
 H          4.3617483085        0.3434903727        1.8314555333
 H          2.6519156355        2.6858104532        0.1477146178
 H          1.3382768232        4.3224121514        1.1355258145
 H         -0.9367009677        5.0945387502        1.6904827003
 H         -2.8994726511        3.8038189794        0.9784292000
 H         -3.0805795705        1.6797276072       -1.5738094397
 C         -4.2041732016        1.7432515142        0.2472543019
 C         -5.1384424526        2.8197494941       -0.2153575406
 C         -5.5086427354        1.3789688635       -0.3935630705
 H         -6.2892298762        0.9632165907        0.2254993671
 H         -5.4681591118        0.9570596855       -1.3875397571
 H         -5.6708995709        3.3944115044        0.5275014989
 H         -4.8592201766        3.3809305982       -1.0943242502
 H         -4.1037077421        1.5707286328        1.3128170482
