  62
        -98.94163928
 C          1.7077557996        0.4851923508       -0.2811636192
 C          2.8272314194        1.2914097407        0.0516068618
 C          4.1463647695        0.7606400813       -0.3151161086
 C          4.2253922598       -0.4396083780       -0.9170646099
 C          5.5046799100       -1.1282527774       -1.2930193305
 C          5.9992194600       -2.0362366785       -0.1581977615
 C          6.0306914197       -1.3541285200        1.2095815393
 H          5.0076552197       -1.1237757305        1.5158120594
 H          6.4241714098       -2.0793344507        1.9251636385
 C          6.8758478895       -0.0736396199        1.2615757208
 H          7.5559349596       -0.0439303089        0.4095189909
 H          7.4891693794       -0.0952914208        2.1648726308
 C          6.0627969693        1.2214162499        1.3061202721
 H          5.3164795992        1.1583805289        2.1019570019
 H          6.7416435491        2.0403224297        1.5584263631
 C          5.3475097794        1.6055229912        0.0047567824
 H          4.9735659392        2.6269369810        0.1212459935
 H          6.0586680294        1.5922574322       -0.8237638275
 H          6.9990189201       -2.3929808381       -0.4123965417
 H          5.3355176301       -2.9017244187       -0.0939168625
 H          5.3199003502       -1.7374931565       -2.1794519412
 H          6.2586984999       -0.3798020970       -1.5292584596
 O          3.1351488500       -1.1928522679       -1.2054876809
 C          1.8501953299       -0.7641447685       -0.8873449805
 O          0.9628743700       -1.5810294583       -1.1940243715
 H         -1.8974409802       -0.3310527692       -0.8253400205
 C         -1.6012631403       -0.6234381002        0.1673666992
 C         -0.4824951904       -0.0638124007        0.7624522200
 C         -0.0972829605       -0.5191892720        2.0210823895
 C         -0.8090450304       -1.5148031628        2.6608099284
 C         -1.9341731202       -2.0625816323        2.0692384876
 C         -2.3254962302       -1.6166616010        0.8131713481
 N         -3.4600462600       -2.1493851506        0.1872769974
 S         -4.4233943001       -1.1813276197       -0.7683405417
 O         -5.7253400100       -1.8138145400       -0.7213178925
 O         -3.8559330000       -1.0224028681       -2.0832437314
 C         -4.4853567004        0.3972735994        0.0638456500
 C         -4.1578269606        1.5453395802       -0.6275986287
 C         -4.2039739909        2.7637410595        0.0315038026
 C         -4.5726733310        2.8118973580        1.3667138927
 C         -4.9053139609        1.6502710672        2.0467415713
 C         -4.8642331706        0.4305168779        1.3914263500
 H         -5.1243809605       -0.4877876227        1.8918306590
 H         -5.1941760210        1.6916498460        3.0845058814
 H         -4.6012795612        3.7604718774        1.8792019437
 H         -3.9480122709        3.6683172701       -0.4971996763
 H         -3.8695063904        1.4611180314       -1.6634239487
 H         -3.9939680700       -2.8042318912        0.7382448066
 H         -2.4940614502       -2.8396077530        2.5669866767
 H         -0.4923520605       -1.8640489738        3.6319962680
 H          0.7795593394       -0.0887656023        2.4854710001
 C          0.3347469394        1.0126716702        0.0966066412
 H          0.5424464792        1.7936466294        0.8471385221
 C         -0.4100229305        1.6959586913       -1.0399935381
 C          0.3232674994        2.4409876426       -2.1135036272
 C         -0.3993071203        1.1706047528       -2.4427733887
 H         -1.3118553002        1.2243186633       -3.0194436187
 H          0.1793794199        0.2819474032       -2.6419862596
 H         -0.0888127607        3.3748546229       -2.4647307162
 H          1.4030920594        2.4209096128       -2.0892911871
 H         -1.3405195007        2.1380626508       -0.6961294477
 O          2.7265591291        2.4032895600        0.6348463030
