  62
        -98.93006590
 C         -2.5301663348       -1.2740456030        0.2671514965
 C         -2.5983479878       -0.1644465831       -0.6081910077
 C         -3.9465883683        0.3696177362       -0.8876399261
 C         -5.0213193690       -0.1903555557       -0.3035066925
 C         -6.4998869782        0.1083603356       -0.4389746983
 C         -6.9792994250        1.4204960795       -1.0545266040
 C         -6.6474148972        2.6698019000       -0.2394275959
 H         -6.9518028333        3.5449597435       -0.8176693711
 H         -7.2410048461        2.6547130304        0.6781969945
 C         -5.1827082525        2.8256987857        0.1627074909
 H         -4.8972838981        2.0129053962        0.8340262119
 H         -5.0889235798        3.7560591717        0.7296004115
 C         -4.1874865258        2.8859834097       -0.9947230616
 H         -3.2141378989        3.1575161989       -0.5765929688
 H         -4.4827485089        3.6719799660       -1.6925460195
 C         -4.0015923535        1.5757352449       -1.7799862864
 H         -4.7690374434        1.4568347929       -2.5411197878
 H         -3.0354369161        1.6249209517       -2.2905826409
 H         -6.6067072726        1.5196083308       -2.0697577827
 H         -8.0684301490        1.3511232696       -1.1224921792
 H         -6.9188454357       -0.7195742441       -1.0217873442
 H         -6.9139377861        0.0144338027        0.5699622959
 O         -4.9027187442       -1.2519834707        0.5478089617
 C         -3.6743311945       -1.7992887134        0.8696406494
 O         -3.7315033352       -2.7320108491        1.6959629555
 H          1.2390001681       -1.3182254370       -0.4949603776
 C          0.9961443904       -0.6680875599        0.3311140632
 C         -0.2056765142       -0.8233600863        1.0020479864
 C         -0.4990878620        0.0460747759        2.0495396302
 C          0.3790745658        1.0520789396        2.4022037863
 C          1.5732166034        1.2119576467        1.7215068982
 C          1.8786780204        0.3477388100        0.6799690345
 N          3.0830458083        0.5143168672       -0.0270362859
 S          4.4751736128        0.8135565734        0.8804275442
 O          4.5210011607       -0.0720777635        2.0228796834
 O          4.5384890680        2.2230451813        1.1763814973
 C          5.7477140841        0.3837201087       -0.2909570700
 C          6.2966613956       -0.8841603748       -0.2547849630
 C          7.2673788956       -1.2210383317       -1.1849343298
 C          7.6678225182       -0.2906110103       -2.1321449027
 C          7.1074864090        0.9780153328       -2.1557291523
 C          6.1373455668        1.3219925130       -1.2278298677
 H          5.6807312470        2.2976116993       -1.2025474261
 H          7.4235750165        1.6990259450       -2.8922547536
 H          8.4237771582       -0.5551325945       -2.8545894019
 H          7.7070825251       -2.2052981239       -1.1671779990
 H          5.9615778387       -1.5719280525        0.5051313871
 H          3.2340748420       -0.2210535604       -0.7038163408
 H          2.2701656712        1.9912379646        1.9856613153
 H          0.1334971443        1.7210359269        3.2139116162
 H         -1.4346329897       -0.0740996728        2.5804154801
 C         -1.2058903723       -1.9027302743        0.6652020657
 H         -1.4245314654       -2.4528486107        1.5958521026
 C         -0.6797684240       -2.9296904638       -0.3265406177
 C         -1.6188470046       -3.7239032474       -1.1833856239
 C         -0.7130490721       -2.7076799458       -1.8079055193
 H          0.1196156573       -3.0620763769       -2.3982687865
 H         -1.1401631182       -1.7838634699       -2.1639497919
 H         -2.6729458432       -3.4983570904       -1.1118010402
 H         -1.4070810885       -4.7709500128       -1.3401648163
 H          0.1772011399       -3.4674183057        0.0684979030
 O         -1.5934632589        0.3634444617       -1.1496083035
