  62
        -98.93924238
 C         -0.9581889600       -1.4493204201        0.4729544903
 C         -1.5358214296       -0.8792943207       -0.6874201702
 C         -2.4191922098        0.2872184393       -0.4766979911
 C         -2.6470433104        0.7416064799        0.7684564686
 C         -3.4426019907        1.9292399300        1.2690379677
 C         -4.4602181504        2.6256160995        0.3690462770
 C         -5.6705249202        1.7749439692       -0.0132516031
 H         -6.2727551205        1.6022622695        0.8822147067
 H         -6.2782131500        2.3471880087       -0.7176892136
 C         -5.3530802898        0.4128784289       -0.6256904123
 H         -4.8519008900       -0.2149213507        0.1138142282
 H         -6.3017658796       -0.0728082613       -0.8697869325
 C         -4.5089930393        0.4476384884       -1.8989134920
 H         -4.5052832490       -0.5617843518       -2.3190709015
 H         -4.9723830891        1.1118539580       -2.6310763625
 C         -3.0416430894        0.8723899586       -1.7105759116
 H         -2.4630876890        0.4919930183       -2.5579937612
 H         -2.9342090295        1.9551792686       -1.7144270721
 H         -4.8284848107        3.4898367897        0.9287892864
 H         -3.9730683901        3.0128338791       -0.5213617630
 H         -3.9464595910        1.5850083904        2.1778173177
 H         -2.7020731309        2.6723737403        1.5863148076
 O         -2.0804485507        0.1484191005        1.8597763091
 C         -1.2332078206       -0.9387554495        1.7431660300
 O         -0.7971769010       -1.3602607789        2.8325856804
 O         -1.3360387491       -1.2946250013       -1.8589704699
 C          0.0190586701       -2.6117951900        0.4535587213
 C          1.4412219202       -2.1297643399        0.2774845916
 C          2.4710400999       -2.6864890594        1.0279392823
 C          3.7749771999       -2.2560954893        0.8652061726
 C          4.0735397502       -1.2449472997       -0.0303097378
 C          3.0514304904       -0.6781146202       -0.7820299684
 C          1.7483324104       -1.1329063003       -0.6368501987
 H          0.9751696906       -0.6963621607       -1.2488682193
 N          3.3162255206        0.3675620094       -1.6849402888
 S          2.3570018405        1.7382057293       -1.6053120799
 O          1.0756850407        1.5021936588       -2.2152147903
 O          3.1666381506        2.7751028891       -2.2098579901
 C          2.1768793297        2.0500312301        0.1413475999
 C          3.2542224094        2.5791095106        0.8253190701
 C          3.1525785388        2.7667169612        2.1937565399
 C          1.9847132686        2.4139355614        2.8534135796
 C          0.9109584089        1.8872809210        2.1526085895
 C          1.0056903095        1.7030401603        0.7820592196
 H          0.1896410898        1.2958120599        0.2045713095
 H          0.0060331488        1.6009459311        2.6660862692
 H          1.9058930482        2.5495494619        3.9204807095
 H          3.9823017586        3.1813653616        2.7430658500
 H          4.1404287196        2.8487548904        0.2740785303
 H          4.2914930906        0.6262962694       -1.7392355186
 H          5.0877533902       -0.8957217197       -0.1490807275
 H          4.5647080597       -2.7002515890        1.4512454232
 H          2.2413701497       -3.4551529291        1.7503249626
 H         -0.0504482602       -3.0763959595        1.4473014215
 C         -0.2971581693       -3.6686438805       -0.5875338283
 C          0.1220122707       -5.0864742303       -0.3473358974
 C         -1.3280848693       -4.7125142105       -0.2862296982
 H         -1.9834077190       -5.0315557909       -1.0825643683
 H         -1.8052214997       -4.6770204301        0.6826732216
 H          0.4681080411       -5.6677950307       -1.1880329070
 H          0.6224935604       -5.3146716998        0.5811931129
 H         -0.2517790490       -3.2940227110       -1.6017511385
