  62
        -98.94825143
 C          1.1761597654        1.2159051383       -0.0209659070
 C          1.9145277313        0.6555487688        1.0481373715
 C          2.5541779046       -0.6393619515        0.7794353681
 C          2.3977779465       -1.2123627901       -0.4279269853
 C          3.0315872543       -2.5051824332       -0.8515743180
 C          4.3957176420       -2.2654652781       -1.5136584467
 C          5.3182868722       -1.3480559640       -0.7113440094
 H          6.2611374550       -1.2757219815       -1.2575648412
 H          4.8862327020       -0.3452433524       -0.6806797371
 C          5.5940827382       -1.8225615425        0.7222549747
 H          6.6621000400       -1.7213347390        0.9261408833
 H          5.3450081736       -2.8800551698        0.8179971546
 C          4.8583098401       -1.0306460355        1.8049776307
 H          5.2856883715       -1.3002871161        2.7745294908
 H          5.0301278102        0.0387993266        1.6584133357
 C          3.3448863060       -1.2665876807        1.8923664631
 H          3.1401169495       -2.3379044068        1.9543769178
 H          2.9859796283       -0.7995451027        2.8147328840
 H          4.8808552479       -3.2316771709       -1.6629800400
 H          4.2304638978       -1.8120090820       -2.4934822897
 H          2.3707189200       -2.9969451891       -1.5673834369
 H          3.1452655572       -3.1484755013        0.0189956227
 O          1.6707269456       -0.6500370786       -1.4262813829
 C          1.0304823356        0.5704803845       -1.2480720805
 O          0.3815683901        0.9570399568       -2.2365667139
 O          2.0325897365        1.2123872575        2.1738395200
 C          0.4761847468        2.5464365943        0.1847256328
 C         -1.0156977630        2.3732784302        0.0357430816
 C         -1.8020648911        3.1755213969       -0.7805075054
 C         -3.1675868911        2.9647893855       -0.8625738901
 C         -3.7739399380        1.9566389659       -0.1371328445
 C         -2.9979146776        1.1542013268        0.6926749321
 C         -1.6315745949        1.3689129159        0.7742638774
 H         -1.0384476926        0.7445393889        1.4271802029
 N         -3.5944653851        0.1437971245        1.4681889293
 S         -2.9214769627       -1.3835254836        1.5306611154
 O         -3.9614301310       -2.2052679230        2.1115253172
 O         -1.6661558992       -1.3536447250        2.2365334456
 C         -2.6734324567       -1.8438561995       -0.1719183041
 C         -1.4122298871       -1.7561971317       -0.7214982713
 C         -1.2413005756       -2.0588843541       -2.0627641623
 C         -2.3328341480       -2.4412415250       -2.8263352824
 C         -3.5947637903       -2.5323728866       -2.2578149209
 C         -3.7708934466       -2.2271597469       -0.9185289687
 H         -4.7321350262       -2.2962064295       -0.4355697956
 H         -4.4391371453       -2.8354495863       -2.8556894064
 H         -2.1955361405       -2.6701128130       -3.8713516859
 H         -0.2607565724       -1.9710267101       -2.5030742650
 H         -0.5880922873       -1.4534712994       -0.0938571122
 H         -4.5967896938        0.0804077911        1.3596138738
 H         -4.8387182013        1.7929362885       -0.2028072857
 H         -3.7666154579        3.5922792529       -1.5046162048
 H         -1.3464576524        3.9643403685       -1.3555099439
 H          0.6797561480        2.8232681062        1.2303210566
 C          1.0650226763        3.6056979151       -0.7230180869
 C          1.0199783332        5.0495886177       -0.3240297276
 C          2.3201358663        4.3053016935       -0.2984761694
 H          3.0626850684        4.5337936242       -1.0482887088
 H          2.7381920610        4.0353116191        0.6606232491
 H          0.8723953706        5.7932131228       -1.0924810347
 H          0.5573980170        5.2925553999        0.6206276585
 H          0.9622510497        3.3590507376       -1.7736258442
