  62
        -98.94565141
 C         -1.0199437194       -1.1425215501       -0.2445771312
 C         -2.0987124695       -1.2442785199        0.6731043387
 C         -2.9737883490       -0.0733967296        0.7813608489
 C         -2.7150489486        1.0190975105        0.0405970891
 C         -3.5014205681        2.3020162208        0.0502320493
 C         -4.7480217881        2.2801813314       -0.8453398307
 C         -5.9105421184        1.4330318417       -0.3267100310
 H         -6.1349495084        1.7158070316        0.7021916691
 H         -6.7847314383        1.6838999122       -0.9309658109
 C         -5.6740045790       -0.0815735083       -0.4065532312
 H         -6.5591452892       -0.5672216879       -0.8237786214
 H         -4.8461039290       -0.2858702285       -1.0894774512
 C         -5.3816052493       -0.7484332587        0.9375769787
 H         -6.2578681793       -0.6683692285        1.5848123186
 H         -5.1909635797       -1.8098091987        0.7594521685
 C         -4.1706246691       -0.1674978193        1.6790624688
 H         -4.4163156588        0.8112637807        2.0899132290
 H         -3.9176097594       -0.8407205495        2.5015982687
 H         -4.4584893682        1.9306006915       -1.8389864708
 H         -5.0956339777        3.3111498915       -0.9443290706
 H         -3.7919858881        2.5454877007        1.0724730293
 H         -2.8305208378        3.0791274806       -0.3199262105
 O         -1.6651703085        1.0847902602       -0.8173157008
 C         -0.7980526689        0.0145441199       -0.9918897410
 O          0.0961127012        0.2369916297       -1.8308782009
 H          2.0118168308       -0.6835248112       -0.8053895610
 C          2.1074459606       -1.2335055814        0.1171836589
 C          1.1233976302       -2.1372366811        0.4954690987
 C          1.2671087099       -2.8215895514        1.6977959786
 C          2.3731392999       -2.6112363719        2.5010882286
 C          3.3494947203       -1.7070023322        2.1258228889
 C          3.2115004106       -1.0119891620        0.9281091190
 N          4.1864924710       -0.0870931823        0.5369010592
 S          3.8649212815        1.1790449480       -0.4946579906
 O          3.7685430114        0.7072915283       -1.8524465607
 O          4.9500565218        2.1076556776       -0.2410560004
 C          2.3416990918        1.9455071585        0.0321107595
 C          1.9714197617        1.9205327584        1.3615568095
 C          0.8259114119        2.5961240988        1.7503593195
 C          0.0838376222        3.2968656992        0.8132980696
 C          0.4715872923        3.3167804393       -0.5164511403
 C          1.6083225821        2.6316443090       -0.9133761004
 H          1.9297887521        2.6028746291       -1.9418651104
 H         -0.1109880575        3.8507629097       -1.2501930003
 H         -0.8038614376        3.8262419695        1.1225918797
 H          0.5160296319        2.5733360987        2.7830243295
 H          2.5617363715        1.3749815481        2.0797504494
 H          4.8807924610        0.1451396673        1.2308236893
 H          4.2126044303       -1.5361523727        2.7508088189
 H          2.4733641397       -3.1507219422        3.4305095285
 H          0.4940710396       -3.5104500511        2.0050754784
 C         -0.1052039299       -2.3517453805       -0.3551669014
 H         -0.6751278802       -3.1803160903        0.0875861984
 C          0.2509626301       -2.7280965803       -1.7782655015
 C          0.6801847795       -4.1343620804       -2.0674379517
 C         -0.6556169003       -3.6459228799       -2.5398182817
 H         -0.7992906401       -3.4682414096       -3.5950999916
 H         -1.5387415904       -4.0094973696       -2.0345395118
 H          1.4583666695       -4.2939292306       -2.7980248417
 H          0.7011075492       -4.8309800406       -1.2429025018
 H          0.7294993204       -1.9327474304       -2.3346621013
 O         -2.3202113699       -2.2713921899        1.3681687485
