  62
        -98.94604287
 C         -1.9305791905       -1.3109469299        0.2141308093
 C         -1.7435356007        0.0872163001        0.1029729200
 C         -2.9208494408        0.9113976598        0.4027630605
 C         -4.0760483307        0.3228948294        0.7626492703
 C         -5.3566362008        1.0294500291        1.1162349007
 C         -6.2104461810        1.4186648595       -0.0984373190
 C         -5.6694167812        2.5831866100       -0.9290709685
 H         -5.4579447413        3.4283586797       -0.2733714382
 H         -6.4677333313        2.8896410601       -1.6079454383
 C         -4.4214122412        2.2456158006       -1.7569236288
 H         -4.5423188814        2.6316477110       -2.7716692986
 H         -4.3206428211        1.1607609106       -1.8383912693
 C         -3.1181571213        2.8232413105       -1.2047944086
 H         -3.1555107215        3.9141682305       -1.2445109581
 H         -2.2978458413        2.4903757510       -1.8459591889
 C         -2.8002042611        2.3958169699        0.2337658511
 H         -3.4553552311        2.9136309395        0.9338174914
 H         -1.7654714911        2.6695235900        0.4530603812
 H         -7.1994269910        1.6952659291        0.2742220412
 H         -6.3303913309        0.5403723698       -0.7370178594
 H         -5.1343675309        1.9189857488        1.7063009711
 H         -5.9329431206        0.3373285287        1.7339236004
 O         -4.2101270705       -1.0263961006        0.8688710197
 C         -3.1502540203       -1.8738888003        0.5883553192
 O         -3.4122752501       -3.0871421304        0.7171475686
 O         -0.6523735408        0.6213773805       -0.2221409499
 C         -0.7763054903       -2.2494517296       -0.0864638912
 C          0.4148706397       -1.8929700598        0.7691432889
 C          0.2370274398       -1.7559766005        2.1442545790
 C          1.2979920298       -1.4288127707        2.9651685690
 C          2.5593289897       -1.2237356102        2.4323146290
 C          2.7504619996       -1.3673016496        1.0641132789
 C          1.6838845296       -1.7126481593        0.2431000389
 H          1.8634862295       -1.8162550788       -0.8133894912
 N          4.0274377895       -1.1991211691        0.4991661789
 S          4.2713791193       -0.1793615884       -0.8049578306
 O          3.4713566292       -0.6066931780       -1.9228079008
 O          5.7043197592       -0.1882250381       -1.0053537708
 C          3.7670566590        1.4369545112       -0.2418354199
 C          2.4237544390        1.7402360110       -0.1464331396
 C          2.0580722388        2.9885089807        0.3338895610
 C          3.0278046287        3.9048699407        0.7082539614
 C          4.3729874887        3.5822660509        0.6075885811
 C          4.7475203489        2.3363905112        0.1325333805
 H          5.7803920689        2.0439481614        0.0325462403
 H          5.1275560586        4.2954986909        0.8980756914
 H          2.7332074486        4.8741313904        1.0789779518
 H          1.0086307888        3.2247742405        0.4098184112
 H          1.6725322991        1.0226013810       -0.4353812599
 H          4.7585053396       -1.0504669793        1.1806119789
 H          3.3885875897       -0.9604551304        3.0713420691
 H          1.1422901398       -1.3246186812        4.0283998591
 H         -0.7509566902       -1.9069706008        2.5586476890
 H         -1.1163851801       -3.2554481198        0.2005803284
 C         -0.4768897805       -2.2449606589       -1.5712635012
 C          0.1109685897       -3.4571239785       -2.2264509418
 C         -1.3168494504       -3.0828338786       -2.4855391515
 H         -1.5797028305       -2.6853057782       -3.4544885513
 H         -2.0941567303       -3.6818810189       -2.0331758918
 H          0.8337697496       -3.3140482780       -3.0158920818
 H          0.3038246199       -4.3178435387       -1.6038499922
 H         -0.1651878607       -1.2720245186       -1.9355515208
