  62
        -98.93931781
 C          2.6357959383        0.9077296768        0.4352023666
 C          2.6635785808       -0.2556816901        1.2429620519
 C          3.5279746167       -1.3471674222        0.7778756514
 C          4.2158975018       -1.1957701032       -0.3687522619
 C          5.1014067537       -2.2407352373       -0.9822589140
 C          4.3229010534       -3.1227737460       -1.9681103905
 C          3.0089638615       -3.6649240346       -1.4056214494
 H          2.3224431854       -2.8313347308       -1.2389744207
 H          2.5628031305       -4.2982178078       -2.1754376271
 C          3.1585067578       -4.4678528190       -0.1057163653
 H          2.5544432780       -5.3742405544       -0.1831651922
 H          4.1958841445       -4.7800091273        0.0194466285
 C          2.6960904786       -3.7306510192        1.1525280588
 H          2.6351363771       -4.4560303037        1.9681612584
 H          1.6912322282       -3.3311994088        0.9935684175
 C          3.6005362445       -2.5857486969        1.6263556683
 H          4.6307175690       -2.9388716238        1.7044774311
 H          3.2634185664       -2.2864775645        2.6230768551
 H          4.9637834138       -3.9540177351       -2.2676736707
 H          4.0957429485       -2.5305881900       -2.8576008568
 H          5.9066799221       -1.7357932326       -1.5184155453
 H          5.5322771670       -2.8528757213       -0.1923111579
 O          4.1443172495       -0.0763155674       -1.1313912801
 C          3.3446812689        0.9969594369       -0.7634429627
 O          3.3643639974        1.9431567856       -1.5719174116
 O          1.9964509016       -0.3742441881        2.3068778007
 C          1.7595527308        2.0673542864        0.8805900389
 C          0.5554531461        2.1399884293       -0.0266566498
 C          0.3831955708        3.1174050419       -0.9970479442
 C         -0.7337180981        3.0979661305       -1.8152893977
 C         -1.6970243511        2.1153069967       -1.6822382790
 C         -1.5379769607        1.1363074819       -0.7089002193
 C         -0.4193099913        1.1581498424        0.1107096348
 H         -0.2877693341        0.3953193249        0.8679881337
 N         -2.5072334050        0.1244287395       -0.5707810795
 S         -4.1259828194        0.6090923915       -0.6322562346
 O         -4.5180839378        0.7059809382       -2.0162584187
 O         -4.3174432101        1.8018717763        0.1618338669
 C         -4.9400405835       -0.7815442522        0.1274851070
 C         -5.1724015947       -1.9129315816       -0.6315730058
 C         -5.7918572087       -3.0010125937       -0.0377371881
 C         -6.1662004404       -2.9402525857        1.2965608747
 C         -5.9267138170       -1.7976387664        2.0449767531
 C         -5.3060252128       -0.7062118370        1.4578688561
 H         -5.1077240499        0.2054913641        1.9984143931
 H         -6.2209774528       -1.7521698981        3.0811890612
 H         -6.6503864337       -3.7877056958        1.7556095305
 H         -5.9820513139       -3.8905180821       -0.6163344690
 H         -4.8740319730       -1.9111395152       -1.6669317861
 H         -2.3324725553       -0.4575598891        0.2373075353
 H         -2.5728864843        2.0969357178       -2.3108469489
 H         -0.8560164107        3.8610687250       -2.5694296854
 H          1.1284978211        3.8850762654       -1.1223916617
 H          1.4051322696        1.7900494540        1.8835230622
 C          2.5341749913        3.3627641167        0.9835981540
 C          1.9596001284        4.4994591854        1.7732761478
 C          3.1435097138        3.7454685673        2.2977265286
 H          4.1075886490        4.2314294196        2.2955759646
 H          2.9947974211        3.0754828414        3.1319882609
 H          2.1088880971        5.5057119933        1.4128983900
 H          1.0038885719        4.3410771030        2.2499396873
 H          3.0980145897        3.5973376319        0.0892865494
