  62
        -98.93241233
 C         -0.9478671219       -1.7640078484        0.4573724107
 C         -1.5825984597       -1.3814245342       -0.7526239455
 C         -2.9040823653       -0.7437933261       -0.6059404752
 C         -3.3673004960       -0.4484995511        0.6212944696
 C         -4.7138108004        0.1499072729        0.9121929191
 C         -4.6911572881        1.6832607410        0.9285497914
 C         -3.9881416648        2.2986000434       -0.2795060615
 H         -4.0414158147        3.3836981871       -0.1703359784
 H         -2.9349820886        2.0151873851       -0.2560098504
 C         -4.5780041151        1.8913179470       -1.6357787061
 H         -5.5788659436        1.4790576632       -1.5017905849
 H         -4.6759846090        2.7816980552       -2.2602673056
 C         -3.7178093978        0.8923562521       -2.4110527135
 H         -2.6875915376        1.2534086604       -2.4594348877
 H         -4.0945464584        0.8414971667       -3.4362514353
 C         -3.7053661587       -0.5395644165       -1.8622966474
 H         -3.2380982584       -1.1776247541       -2.6184031646
 H         -4.7330247816       -0.8813782792       -1.7155217991
 H         -4.1776298564        2.0132639628        1.8340608839
 H         -5.7212727183        2.0412495720        0.9774412222
 H         -5.4188383019       -0.2001203883        0.1594155681
 H         -5.0381330890       -0.2101079996        1.8903816316
 O         -2.6451883412       -0.6708330709        1.7499437564
 C         -1.4568254226       -1.3798960497        1.7001848720
 O         -0.9504799335       -1.6084985017        2.8174598407
 O         -1.1105242243       -1.5835721356       -1.8986147346
 C          0.2605753107       -2.6833105988        0.5025784203
 C          1.5921885178       -1.9924558478        0.3709106380
 C          2.6914374072       -2.4863198248        1.0674345266
 C          3.9494287517       -1.9370736492        0.8968969605
 C          4.1293040653       -0.8617984674        0.0453896640
 C          3.0306495086       -0.3290985283       -0.6144028479
 C          1.7727017464       -0.8940621241       -0.4589745847
 H          0.9366827365       -0.4858532496       -1.0049278188
 N          3.1509227466        0.8443984210       -1.4171526884
 S          3.2198627363        2.2401386843       -0.4833828018
 O          3.3977307843        3.3339909335       -1.4108497578
 O          4.2406210663        2.1247075588        0.5389839654
 C          1.6236584303        2.3229716557        0.2889654985
 C          0.6631216071        3.1591984125       -0.2428517834
 C         -0.5670264683        3.2490743348        0.3871243514
 C         -0.8211275304        2.4857652561        1.5169104183
 C          0.1484277021        1.6392311157        2.0309458489
 C          1.3894432817        1.5648519659        1.4193444900
 H          2.1736525719        0.9378194474        1.8120637330
 H         -0.0592403884        1.0292610542        2.8965835339
 H         -1.7804438642        2.5489288116        2.0063158292
 H         -1.3223837509        3.9125438424       -0.0024200848
 H          0.9038565977        3.7303982871       -1.1246502898
 H          3.9576489292        0.8286543536       -2.0275795310
 H          5.1022411207       -0.4130160093       -0.0866267881
 H          4.7931372542       -2.3430189131        1.4339312534
 H          2.5531381657       -3.3084270855        1.7545756865
 H          0.2333313379       -3.1365017584        1.5068435084
 C          0.1202760156       -3.8213405507       -0.5066152015
 C          0.8714302130       -3.8716876686       -1.7991662125
 C          1.2061257352       -4.8370866861       -0.7049955158
 H          0.9208082984       -5.8716175517       -0.8228091035
 H          2.1388188281       -4.6933636820       -0.1823568415
 H          0.3467104259       -4.2257455580       -2.6730995607
 H          1.5654506861       -3.0727993307       -2.0087569945
 H         -0.8978201113       -4.1985035606       -0.5318239395
