  62
        -98.93339676
 C          2.1131280094        1.2425795500       -0.0450132496
 C          2.4438108397        0.0660113704       -0.7611301202
 C          3.8649192298       -0.3196050793       -0.7278785202
 C          4.7505329996        0.4569497606       -0.0792190097
 C          6.2129743596        0.1546549708        0.0694891302
 C          6.4869835597       -0.6440497398        1.3515440299
 C          5.5696271799       -1.8532872601        1.5337899492
 H          5.8740085800       -2.3563375105        2.4541818389
 H          4.5447479198       -1.5050615604        1.6814374792
 C          5.6000500603       -2.8542939895        0.3704028186
 H          6.4960768503       -2.6965098190       -0.2309668612
 H          5.6583453104       -3.8650635397        0.7797129681
 C          4.3683253303       -2.8119343793       -0.5362249914
 H          3.4620516403       -2.8759149398        0.0716207484
 H          4.3913546006       -3.6937957289       -1.1821212719
 C          4.2508038502       -1.5822394688       -1.4457021908
 H          5.1811553402       -1.4435015384       -2.0001799707
 H          3.4480969803       -1.7753044786       -2.1635269310
 H          7.5275784898       -0.9731251596        1.3372818398
 H          6.3520528995        0.0200906397        2.2083279102
 H          6.5533282698       -0.4045922687       -0.7997550500
 H          6.7562049394        1.0998893109        0.1176308008
 O          4.3988760793        1.5987307602        0.5660366008
 C          3.0782219992        2.0079760898        0.6126710209
 O          2.8881188789        3.0567113795        1.2622001514
 H         -1.1803166802        0.1423744100       -1.4265729005
 C         -1.0906299503       -0.0751619906       -0.3790862606
 C         -0.2284485705        0.6282302892        0.4461071099
 C         -0.1408477405        0.2353757085        1.7837143797
 C         -0.8834453204       -0.8177132519        2.2779090091
 C         -1.7655583001       -1.4944030016        1.4531152286
 C         -1.8643126701       -1.1147363310        0.1226871788
 N         -2.7702803499       -1.7568684607       -0.7507089116
 S         -4.0423091300       -0.8201829007       -1.3040320212
 O         -4.9257772998       -1.7321250806       -1.9948109518
 O         -3.5346344402        0.2908912398       -2.0639784406
 C         -4.8274389803       -0.2294551717        0.1863357390
 C         -4.2935305306        0.8679505581        0.8328629396
 C         -4.8563061708        1.2767976474        2.0316613998
 C         -5.9358969407        0.5858805069        2.5604917793
 C         -6.4618679104       -0.5129817429        1.8981425987
 C         -5.8998051602       -0.9303879421        0.7024277185
 H         -6.2773168099       -1.7767127519        0.1513687481
 H         -7.3035126003       -1.0460300933        2.3103125484
 H         -6.3699439708        0.9076869563        3.4939577594
 H         -4.4461462210        2.1303785872        2.5470520103
 H         -3.4555911607        1.3838726885        0.3919584200
 H         -3.1317292697       -2.6285314910       -0.3887878821
 H         -2.3601523200       -2.3122500720        1.8319602682
 H         -0.7849889004       -1.1067142724        3.3131698389
 H          0.5418693393        0.7669562184        2.4333817900
 C          0.6788509893        1.7586106696        0.0325881705
 H          0.6865187991        2.4700441692        0.8743709509
 C          0.3879040292        2.6080868502       -1.1974576890
 C          0.2032556095        2.0906757309       -2.5906530993
 C         -0.9331291907        2.7721402903       -1.8865139891
 H         -1.2025840709        3.7660037304       -2.2140777286
 H         -1.7793222706        2.1770391199       -1.5829776995
 H          0.1708403097        1.0228619509       -2.7377924399
 H          0.7012640494        2.6156229114       -3.3939973090
 H          0.9850206290        3.5161223303       -1.1312450485
 O          1.6145358999       -0.6357678994       -1.3931029706
