  62
        -98.93864295
 C         -2.0383103559       -0.4070507319       -0.2831973404
 C         -3.0434717611       -0.9129907552        0.5740348256
 C         -4.2710738975       -0.1077800507        0.7198734125
 C         -4.3553144040        1.0647201739        0.0640613605
 C         -5.5089261347        2.0315422165        0.0284023647
 C         -6.6578231333        1.5493303818       -0.8719454104
 C         -7.0265210052        0.0769391825       -0.7102959535
 H         -7.7733483192       -0.1631890851       -1.4716879934
 H         -6.1474297226       -0.5369010875       -0.9143864084
 C         -7.6072744368       -0.3035120037        0.6495305324
 H         -8.5053839922        0.2900626404        0.8343541225
 H         -7.9093780101       -1.3523118072        0.5908051344
 C         -6.6665058719       -0.1475604902        1.8462772833
 H         -7.1186057781       -0.6821846993        2.6868330288
 H         -6.5868322235        0.8926235499        2.1506330825
 C         -5.2774905045       -0.7457511327        1.6471696800
 H         -5.3790278439       -1.7849569103        1.3141412799
 H         -4.7807489522       -0.8044342296        2.6231910495
 H         -6.3597604035        1.7054843244       -1.9116765811
 H         -7.5334324077        2.1704608708       -0.6757268382
 H         -5.8627843340        2.2288041488        1.0359316932
 H         -5.1199313214        2.9685287530       -0.3764473508
 O         -3.3495318982        1.5256215304       -0.7328514263
 C         -2.1769003156        0.8195140105       -0.9311315595
 O         -1.3656664205        1.3804990282       -1.6927570369
 O         -2.9294212329       -2.0049137835        1.1935209122
 C         -0.7656725846       -1.2188978853       -0.4583495022
 C          0.3702420795       -0.4758114077        0.1989464872
 C          0.4889738248       -0.5181794924        1.5858010184
 C          1.4882361873        0.1842786712        2.2321420690
 C          2.3899161501        0.9464911008        1.5098282239
 C          2.2796176528        0.9951225540        0.1266864047
 C          1.2831198424        0.2769959685       -0.5227599822
 H          1.2011448033        0.3376690616       -1.5962025361
 N          3.1907872486        1.7670998293       -0.6116891425
 S          4.8142305310        1.6609880743       -0.2299087959
 O          5.1004255408        2.4801921283        0.9217872833
 O          5.5143977928        2.0143853146       -1.4448546286
 C          5.0834214440       -0.0569585739        0.1705589608
 C          4.8610810283       -0.9961664720       -0.8170918722
 C          5.0288150078       -2.3377822011       -0.5163205296
 C          5.4112475268       -2.7160178734        0.7618032681
 C          5.6345709727       -1.7610261622        1.7411023695
 C          5.4680525872       -0.4173225159        1.4457030688
 H          5.6307705071        0.3573480846        2.1771419344
 H          5.9337523447       -2.0578603324        2.7334080553
 H          5.5368523505       -3.7617478804        0.9942496135
 H          4.8574163697       -3.0824486453       -1.2769878136
 H          4.5704955667       -0.6680076192       -1.8020968019
 H          3.0341989501        1.7493444030       -1.6081190855
 H          3.1653120082        1.5154904084        1.9965262520
 H          1.5658584804        0.1430165661        3.3079204849
 H         -0.2238726975       -1.1026823557        2.1505450728
 H         -0.9360931128       -2.1457745505        0.1059170647
 C         -0.5155989183       -1.5700792354       -1.9096464925
 C          0.4688127221       -2.6495510453       -2.2443495273
 C         -0.9982495868       -2.8870269016       -2.4359672064
 H         -1.3890971356       -2.9269069572       -3.4417712274
 H         -1.5050445755       -3.5451366776       -1.7455622472
 H          1.0873533446       -2.5307071306       -3.1208060333
 H          0.9585792418       -3.1462570502       -1.4207649458
 H         -0.5848048616       -0.7181115533       -2.5753510955
