  62
        -98.94051828
 C         -2.2624923265       -1.0155265643       -0.3305566630
 C         -3.5938238225       -1.1365449552        0.1387693440
 C         -4.5419033908       -0.1317266597       -0.3533132495
 C         -4.1229599798        0.8153287121       -1.2121986523
 C         -4.9731356647        1.8986401841       -1.8187408479
 C         -5.1336618914        3.1364573977       -0.9254630691
 C         -6.0415952055        2.9467326272        0.2903315936
 H         -6.2363376521        3.9389967622        0.7019998485
 H         -6.9977989562        2.5346154715       -0.0333223140
 C         -5.4450111980        2.0629186520        1.3946665777
 H         -4.3658907573        1.9742436204        1.2472324426
 H         -5.5961911649        2.5412651569        2.3649762475
 C         -6.0502645149        0.6617085552        1.4815656848
 H         -7.1043989300        0.7346037846        1.7577072875
 H         -5.5318360893        0.1135523395        2.2722451779
 C         -5.9396980107       -0.1562889670        0.1879616272
 H         -6.1896836039       -1.1951147700        0.4162071354
 H         -6.6423410724        0.2183554290       -0.5557345929
 H         -5.5524288596        3.9330041427       -1.5448100889
 H         -4.1430464035        3.4584126048       -0.5953885720
 H         -5.9557893516        1.4976697479       -2.0682223912
 H         -4.4755688292        2.2024653011       -2.7422336239
 O         -2.8389164742        0.8873755902       -1.6544656429
 C         -1.8713874155       -0.0024780970       -1.2060590023
 O         -0.7335070746        0.2119505706       -1.6667515559
 O         -3.9704765503       -2.0404654787        0.9315255808
 C         -1.2231913643       -1.9990819188        0.1812039377
 C         -0.2461096503       -1.2489765874        1.0526180948
 C         -0.7053285810       -0.7344801065        2.2636981820
 C          0.1317189313       -0.0046472432        3.0837236232
 C          1.4420890346        0.2347568094        2.7074664998
 C          1.9121151203       -0.2770764428        1.5042747271
 C          1.0715337952       -1.0232247398        0.6878643684
 H          1.4546062030       -1.3964636319       -0.2461802586
 N          3.2553523246       -0.0780034189        1.1282697640
 S          3.6069223381        0.3838340134       -0.4604505262
 O          2.9091597392        1.6069044672       -0.7901886264
 O          3.4124203468       -0.7419478481       -1.3365468582
 C          5.3534551341        0.7115641927       -0.2922652021
 C          6.2308392158       -0.3560724172       -0.2960199831
 C          7.5854655880       -0.1109616350       -0.1372058001
 C          8.0383624276        1.1903256781        0.0224066392
 C          7.1465353164        2.2520959784        0.0217677092
 C          5.7901981091        2.0132272082       -0.1353854322
 H          5.0607905299        2.8072441642       -0.1521914709
 H          7.5012581182        3.2630521696        0.1421521015
 H          9.0932585666        1.3785600724        0.1448445647
 H          8.2821931210       -0.9336059805       -0.1393275115
 H          5.8332105567       -1.3480893006       -0.4322741748
 H          3.7282812002        0.5528147785        1.7637695704
 H          2.0966282533        0.8130354012        3.3424085353
 H         -0.2379515179        0.3884926300        4.0188701813
 H         -1.7341081352       -0.9120471009        2.5462753529
 H         -1.7799769495       -2.7000958505        0.8199814378
 C         -0.5787506008       -2.7762146980       -0.9449055613
 C          0.1005255889       -4.0784559618       -0.6476635318
 C         -1.1998184497       -4.0642159531       -1.3921463441
 H         -1.1954429556       -4.2983341029       -2.4461226264
 H         -2.0890175890       -4.3937495935       -0.8747245229
 H          1.0026654649       -4.3209782126       -1.1883923472
 H          0.0944045366       -4.4198219963        0.3764615200
 H         -0.1464261765       -2.1405389358       -1.7094840526
