  62
        -98.94964946
 C          1.6818231993        1.2217952914        0.3454647497
 C          1.3327427397        0.1517423309       -0.5110296097
 C          1.9158590905       -1.1510974287       -0.1782298993
 C          2.6916855609       -1.2750967577        0.9135419605
 C          3.3315821418       -2.5451700172        1.4053245009
 C          4.6577664318       -2.8900703067        0.7131457307
 C          4.5323457517       -3.3841640174       -0.7286209991
 H          5.5035280918       -3.7953836169       -1.0109379692
 H          3.8088554121       -4.1989695178       -0.7689890985
 C          4.1436141708       -2.2962821380       -1.7392683395
 H          4.3171732103       -1.3120882977       -1.2982517699
 H          4.7855748906       -2.3716527180       -2.6197231096
 C          2.6961363807       -2.3715660791       -2.2248178990
 H          2.5440622311       -3.2982814694       -2.7822933386
 H          2.5190693300       -1.5346274895       -2.9045976493
 C          1.6511505209       -2.2999840192       -1.1035004588
 H          0.6680118907       -2.1428331200       -1.5542082786
 H          1.6274614216       -3.2361986390       -0.5456637684
 H          5.3048667113       -2.0103515863        0.7426805501
 H          5.1368266024       -3.6746806361        1.3034095409
 H          3.5250229520       -2.4015696366        2.4708285508
 H          2.6299113522       -3.3725096976        1.2921823014
 O          2.9767172805       -0.2281522772        1.7339453200
 C          2.4829046697        1.0394477624        1.4705042996
 O          2.8217029294        1.9081886029        2.3021792891
 H         -0.5104592303        1.1609154707        1.6305818603
 C         -1.0636818109        1.7285722801        0.8960550102
 C         -0.3864359916        2.5441118601       -0.0015850403
 C         -1.1286542423        3.2705841392       -0.9248843804
 C         -2.5076731922        3.1566376984       -0.9636100100
 C         -3.1723002015        2.3036728884       -0.1015449294
 C         -2.4393231608        1.5819470592        0.8331169807
 N         -3.0628049000        0.6820583292        1.7241357912
 S         -2.6610274491       -0.9388100006        1.5645516618
 O         -3.4918157085       -1.6255682007        2.5312383923
 O         -1.2387351690       -1.1136469797        1.7066384015
 C         -3.2030946393       -1.3627850216       -0.0819561979
 C         -4.4335600390       -1.9741897624       -0.2327565073
 C         -4.8992473992       -2.2426893532       -1.5093436670
 C         -4.1343391297       -1.8866631233       -2.6102105074
 C         -2.9046575000       -1.2699232425       -2.4411490380
 C         -2.4291499198       -1.0009827616       -1.1662230282
 H         -1.4725615901       -0.5239080410       -1.0164157587
 H         -2.3032368804       -0.9885588225       -3.2907740883
 H         -4.4970954599       -2.0908415239       -3.6052638972
 H         -5.8548360690       -2.7240216838       -1.6415857566
 H         -4.9907742586       -2.2341587423        0.6528736230
 H         -4.0705503601        0.7665371787        1.7436470015
 H         -4.2452867614        2.1935872977       -0.1488364091
 H         -3.0701323427        3.7256828378       -1.6878568201
 H         -0.6252887428        3.9226278492       -1.6199003208
 C          1.1198404584        2.6066945510        0.0822292693
 H          1.3932260783        3.2197051015        0.9540458689
 C          1.7620839177        3.2007753608       -1.1556528512
 C          1.9836109868        4.6789352409       -1.2629765919
 C          3.1479621074        3.7600341617       -1.0506542418
 H          3.8345737773        3.5956031517       -1.8675261119
 H          3.6158180577        3.7382751724       -0.0767629619
 H          1.6689480467        5.2939208211       -0.4333770920
 H          1.8751617663        5.1485519404       -2.2290225620
 H          1.5114763878        2.6514241703       -2.0560174609
 O          0.5678045893        0.2792928100       -1.5033927296
