  62
        -98.94293499
 C         -1.9957074794       -1.0400456239        0.3970654261
 C         -2.6014700878        0.0085064976        1.1383942932
 C         -4.0244333647        0.2514756503        0.8813066202
 C         -4.6836073045       -0.5264762741        0.0040298661
 C         -6.1439265137       -0.4302727229       -0.3451799289
 C         -6.4620482430        0.6201724198       -1.4178542364
 C         -6.3589519554        2.0739082981       -0.9548022245
 H         -6.8151213216        2.6908600349       -1.7315195373
 H         -6.9468419562        2.2076643403       -0.0461893818
 C         -4.9230795106        2.5626681313       -0.7174986222
 H         -4.2202273114        1.8832834531       -1.2055459818
 H         -4.7908640916        3.5438187757       -1.1791974170
 C         -4.5344601363        2.7004633533        0.7547710291
 H         -3.4884363273        3.0146569949        0.8049657311
 H         -5.1417919137        3.4782809382        1.2232379822
 C         -4.6803656501        1.4092858554        1.5707788552
 H         -5.7336122534        1.1968403805        1.7538817517
 H         -4.1791549405        1.5522763595        2.5313828764
 H         -5.7975864037        0.4615242255       -2.2702633717
 H         -7.4853135211        0.4409499694       -1.7557235231
 H         -6.7221458053       -0.2194468051        0.5549046955
 H         -6.4373058271       -1.4109080334       -0.7258921904
 O         -4.0763917978       -1.5361461500       -0.6691947158
 C         -2.7224050295       -1.8052221529       -0.5161027648
 O         -2.3222833352       -2.7387971292       -1.2376250225
 O         -1.9811268025        0.7031667224        1.9882609025
 C         -0.5173669335       -1.2874589806        0.6501587750
 C          0.3314332641       -0.6337145882       -0.4144717354
 C          0.3138925954       -1.0755843464       -1.7342404533
 C          1.0922360831       -0.4516552304       -2.6912266607
 C          1.9145483887        0.6087666402       -2.3513094643
 C          1.9388469169        1.0591418225       -1.0374561408
 C          1.1448429703        0.4400165904       -0.0806859799
 H          1.1627237296        0.8122705507        0.9328752180
 N          2.7628193234        2.1372182923       -0.6619522121
 S          3.8470276103        1.9211599499        0.5951547605
 O          3.1382372002        1.7370914587        1.8347629039
 O          4.7325030194        3.0613952231        0.5203467495
 C          4.7300244234        0.4345113685        0.1575374513
 C          5.8865603511        0.5421016922       -0.5900480620
 C          6.5329391875       -0.6144337821       -0.9952044858
 C          6.0071616776       -1.8527475044       -0.6584797845
 C          4.8438485106       -1.9439227152        0.0901700474
 C          4.1967712395       -0.7906810014        0.5045132649
 H          3.2923930053       -0.8230836001        1.0893587573
 H          4.4328053870       -2.9056264393        0.3520625929
 H          6.5071433292       -2.7529662877       -0.9793039324
 H          7.4400225657       -0.5475027335       -1.5740173663
 H          6.2617405287        1.5251137443       -0.8249149724
 H          3.2291473932        2.5816577627       -1.4404953467
 H          2.5255964887        1.0917510001       -3.0989058682
 H          1.0642849242       -0.7996523055       -3.7126354060
 H         -0.3325560226       -1.8960250546       -2.0044196312
 H         -0.3049094837       -0.7782161173        1.6006336768
 C         -0.1692618041       -2.7544213171        0.8063065663
 C          1.0290013224       -3.1361706160        1.6203339656
 C         -0.3496319629       -3.4092438822        2.1412637032
 H         -0.7016721976       -4.4293648113        2.1704361035
 H         -0.7189880400       -2.7975442887        2.9519031495
 H          1.6283772370       -3.9718816632        1.2941155765
 H          1.5922645894       -2.3420845785        2.0880673088
 H         -0.3959171390       -3.3491093997       -0.0683831242
