  62
        -98.94966086
 C          1.6793760095        1.2290288619        0.3416230460
 C          1.3317480852        0.1598200591       -0.5166380735
 C          1.9184841976       -1.1421800292       -0.1872371497
 C          2.6946016307       -1.2668067481        0.9042478623
 C          3.3352663953       -2.5369270090        1.3947343132
 C          4.6632103868       -2.8782408456        0.7043056698
 C          4.5407801452       -3.3688981698       -0.7388693921
 H          5.5134658790       -3.7765132553       -1.0212939812
 H          3.8197061900       -4.1857256142       -0.7820063098
 C          4.1496528495       -2.2796184735       -1.7471094506
 H          4.7927914777       -2.3506294641       -2.6270598982
 H          4.3195588104       -1.2959706114       -1.3034485251
 C          2.7029649456       -2.3582939640       -2.2345428808
 H          2.5246537212       -1.5213550933       -2.9139955948
 H          2.5540953057       -3.2850452998       -2.7928266119
 C          1.6563596496       -2.2900471787       -1.1144371407
 H          0.6733674417       -2.1338831410       -1.5658369207
 H          1.6333751473       -3.2271086869       -0.5579714983
 H          5.1424830045       -3.6635671672        1.2934654955
 H          5.3087489408       -1.9974916494        0.7371913278
 H          3.5263415463       -2.3951766034        2.4609204817
 H          2.6349196367       -3.3649454212        1.2785498729
 O          2.9794412239       -0.2206100388        1.7256584195
 C          2.4825459241        1.0463429959        1.4650786529
 O          2.8208114086        1.9144258575        2.2977399005
 H         -0.4937313414        1.1341490157        1.6345721493
 C         -1.0595785853        1.7104020791        0.9166223303
 C         -0.3985291852        2.5428197594        0.0225102350
 C         -1.1569494953        3.2798255340       -0.8790691527
 C         -2.5359759402        3.1607431531       -0.8993954852
 C         -3.1846463929        2.2911878154       -0.0416720849
 C         -2.4351842505        1.5576386262        0.8703681363
 N         -3.0405922034        0.6380627435        1.7537871935
 S         -2.6321317417       -0.9768570111        1.5545467007
 O         -3.4468098466       -1.6889615040        2.5166112157
 O         -1.2072840239       -1.1464970729        1.6751876090
 C         -3.1937582752       -1.3679038025       -0.0936736248
 C         -4.4256273976       -1.9775241859       -0.2404653253
 C         -4.9083350722       -2.2205105682       -1.5158058523
 C         -4.1586646300       -1.8411758367       -2.6193588607
 C         -2.9273182932       -1.2266722099       -2.4543061993
 C         -2.4347773456       -0.9832035069       -1.1806644746
 H         -1.4762196483       -0.5090294393       -1.0340887152
 H         -2.3376348898       -0.9278690748       -3.3061898382
 H         -4.5345963303       -2.0257083996       -3.6133668982
 H         -5.8652333910       -2.7001446216       -1.6448980185
 H         -4.9705377120       -2.2561951066        0.6471178642
 H         -4.0483020215        0.7168814830        1.7905687062
 H         -4.2577654806        2.1774957174       -0.0751312168
 H         -3.1113188665        3.7391471708       -1.6058906189
 H         -0.6661833739        3.9444571950       -1.5712180707
 C          1.1085903645        2.6117527309        0.0863180484
 H          1.3905572196        3.2251726522        0.9551537838
 C          1.7315800197        3.2102338994       -1.1592570384
 C          1.9502100620        4.6888600226       -1.2658190060
 C          3.1183386292        3.7705314759       -1.0727590855
 H          3.7934355142        3.6089791611       -1.8997153500
 H          3.5999819516        3.7467712072       -0.1056597369
 H          1.6472256877        5.3016254593       -0.4302641592
 H          1.8273886679        5.1606417189       -2.2290829524
 H          1.4683686326        2.6631885181       -2.0573486638
 O          0.5646537004        0.2875324703       -1.5073348855
