  62
        -98.93806250
 C         -1.9125078891       -1.4717779432        0.3931158416
 C         -0.7620457309       -1.5100779949        1.2136848689
 C          0.2983306794       -2.4580877520        0.8158741825
 C          0.1651296465       -3.1523817757       -0.3255133398
 C          1.1697689012       -4.0781187672       -0.9540074705
 C          2.0590134684       -3.3117465468       -1.9491760091
 C          3.3183755353       -2.6972746494       -1.3411531978
 H          4.0072369851       -3.4948177437       -1.0528105082
 H          3.8011204660       -2.1086820268       -2.1250040645
 C          3.0691933696       -1.7891764718       -0.1341614688
 H          3.9261055211       -1.1187618712       -0.0341337359
 H          2.1974183759       -1.1644459851       -0.3353999555
 C          2.8872902621       -2.5639843499        1.1789396642
 H          3.2207968418       -3.5913622822        1.0303427687
 H          3.5392139421       -2.1326580400        1.9411951568
 C          1.4652189866       -2.5654310590        1.7608146986
 H          1.3511283085       -1.7142308910        2.4385445884
 H          1.3321947155       -3.4685843358        2.3664168546
 H          2.3619368849       -3.9920056464       -2.7483223114
 H          1.4556460964       -2.5190009532       -2.4008950822
 H          1.7681312294       -4.5720291951       -0.1935909568
 H          0.6007134573       -4.8324442322       -1.5015275655
 O         -0.9373795586       -3.0507797081       -1.1180959765
 C         -1.9870116849       -2.2194956074       -0.7844321682
 O         -2.9354654293       -2.2373574442       -1.5970382656
 O         -0.5954859562       -0.7889318516        2.2327620120
 C         -3.0888096490       -0.5354440498        0.6317887905
 C         -2.8783815926        0.7240155466       -0.1718083744
 C         -3.8902456517        1.2819458021       -0.9426096436
 C         -3.6402507811        2.3970744415       -1.7242126145
 C         -2.3711130767        2.9437423159       -1.7883430806
 C         -1.3507062782        2.3888714572       -1.0235065226
 C         -1.6255237651        1.3188658981       -0.1888875907
 H         -0.8377157568        0.9108528713        0.4197147075
 N         -0.0335566193        2.8730581195       -1.0889854489
 S          1.2372636576        1.7809018053       -1.3139497632
 O          1.9843851419        2.2962168762       -2.4452875760
 O          0.7479180893        0.4307307845       -1.4368769107
 C          2.2365298307        1.9863220525        0.1484824195
 C          3.3130894496        2.8505678342        0.0751305509
 C          4.1090304974        3.0359853894        1.1933120015
 C          3.8179983415        2.3568287473        2.3667094593
 C          2.7346963121        1.4946908017        2.4259292941
 C          1.9333999971        1.3060478092        1.3103523663
 H          1.0910042122        0.6342075315        1.3472625962
 H          2.4997618142        0.9632077167        3.3344576771
 H          4.4376670362        2.4975789428        3.2382947606
 H          4.9520794693        3.7063415938        1.1459510417
 H          3.5102440981        3.3470408192       -0.8607042987
 H          0.0801413755        3.6531195125       -1.7212335240
 H         -2.1664279332        3.7850343085       -2.4336247644
 H         -4.4347727569        2.8259531344       -2.3161332192
 H         -4.8686369233        0.8239964140       -0.9477418517
 H         -3.9665548176       -1.0505520670        0.2078910899
 C         -3.3795587359       -0.2703170684        2.1009106226
 C         -3.0771068233        1.0324412146        2.7716713758
 C         -4.4972106579        0.6537773934        2.4853905183
 H         -5.1365877107        0.3744119409        3.3089545347
 H         -5.0034573145        1.1803762865        1.6905574843
 H         -2.7215992868        0.9987905644        3.7898190581
 H         -2.6280351066        1.8150863195        2.1801686381
 H         -3.2561940667       -1.1629333819        2.7047737288
