  62
        -98.93783040
 C         -1.3413876365       -1.5022225305       -0.5749821201
 C         -2.5623593122       -1.5061725150        0.1416000827
 C         -3.5776969337       -0.5024154842       -0.2278340970
 C         -3.2940197292        0.3632474690       -1.2184572448
 C         -4.1367799850        1.4961078470       -1.7422483205
 C         -4.1349879895        2.7127596245       -0.8043052070
 C         -4.3329917562        2.3828684960        0.6726858415
 H         -3.5318461479        1.7164591336        0.9990149449
 H         -4.2240657342        3.3134632829        1.2364142622
 C         -5.6869072453        1.7731012131        1.0298559369
 H         -6.4797829141        2.4559262751        0.7166440246
 H         -5.7271670220        1.6948809655        2.1192887908
 C         -5.9755445364        0.3880184636        0.4454395594
 H         -6.2783230988        0.4547657422       -0.5961247010
 H         -6.8298682233       -0.0227836381        0.9912788164
 C         -4.8372058051       -0.6157527691        0.5970106127
 H         -4.5131693693       -0.6370966501        1.6438868042
 H         -5.2284374060       -1.6207492694        0.3974820808
 H         -3.1689747748        3.2150924963       -0.9038199694
 H         -4.9124677049        3.4044016172       -1.1341321318
 H         -3.7001880665        1.7950749473       -2.6979374719
 H         -5.1503523961        1.1552554154       -1.9318735482
 O         -2.1084106713        0.3306794531       -1.8867756310
 C         -1.0989439339       -0.5694828630       -1.5839037769
 O         -0.0829694092       -0.4328494045       -2.2897208431
 O         -2.8034256693       -2.3295909498        1.0674206265
 C         -0.3050242675       -2.5251667206       -0.1475719647
 C          0.5387904906       -1.9966514986        0.9871175554
 C          0.9241092696       -2.8240510920        2.0360234649
 C          1.7000239044       -2.3302050577        3.0697816076
 C          2.0963068205       -1.0054724117        3.0831131833
 C          1.7000198401       -0.1631181911        2.0482774413
 C          0.9385144162       -0.6683605764        1.0043072601
 H          0.6277644280       -0.0074037076        0.2123698295
 N          2.0378428677        1.1918803860        2.0763880833
 S          2.0663781117        2.2001009019        0.7496820665
 O          2.6122946336        3.4322622278        1.2800404788
 O          0.7575296170        2.2937676582        0.1547476441
 C          3.2579013445        1.4840192229       -0.3665862015
 C          4.5896202718        1.6061883400       -0.0133390200
 C          5.5588807752        1.0613871635       -0.8375361611
 C          5.1825775817        0.4076469102       -2.0019508775
 C          3.8446388605        0.2980152955       -2.3430510700
 C          2.8660121875        0.8360048539       -1.5190815540
 H          1.8195619083        0.7442607415       -1.7667582396
 H          3.5440655614       -0.2067461015       -3.2470909700
 H          5.9351662156       -0.0161722604       -2.6479421847
 H          6.6004496975        1.1489888628       -0.5736905363
 H          4.8395261041        2.1422616013        0.8877145191
 H          2.6775401827        1.4754602068        2.8017317147
 H          2.6895509375       -0.6162253702        3.8960182076
 H          1.9942375178       -2.9818137251        3.8783369375
 H          0.5932982812       -3.8520140980        2.0497326711
 H         -0.8888467101       -3.3710479394        0.2510200384
 C          0.5360590982       -3.0537854151       -1.3007408730
 C          1.9683426342       -2.6744357943       -1.5086351268
 C          1.6224689285       -4.0592316419       -1.0561713359
 H          1.7327443398       -4.8745432057       -1.7548696213
 H          1.8452833348       -4.3191379100       -0.0331124983
 H          2.3023553516       -2.5239230187       -2.5230107647
 H          2.4221837254       -1.9994341653       -0.7992533573
 H         -0.0580612784       -3.1904648487       -2.1984940814
