  62
        -98.93829006
 C          1.8592841658        0.7661089023       -0.2518927996
 C          2.4486161862        0.1243684482        0.8616194539
 C          3.5375934341       -0.8230741914        0.5722134194
 C          3.8851419966       -1.0555893562       -0.7052968278
 C          4.9297619596       -2.0062694644       -1.2347490526
 C          6.2759806207       -2.0629248299       -0.4995679253
 C          6.7362480794       -0.7339354962        0.1171523367
 H          7.7607942466       -0.5318718634       -0.2005970674
 H          6.1141566298        0.0841732615       -0.2498213620
 C          6.7131777310       -0.7462024547        1.6475512654
 H          7.1174545102       -1.6990834458        1.9962065264
 H          7.3737646151        0.0427416479        2.0150690553
 C          5.3424346723       -0.5213686716        2.2844373625
 H          5.4439880390       -0.6691575152        3.3623108864
 H          5.0287055921        0.5147414320        2.1311919868
 C          4.2153322623       -1.4300750146        1.7671046836
 H          4.5812343436       -2.4323687022        1.5576817726
 H          3.4515611646       -1.4944809363        2.5471122254
 H          7.0164187190       -2.4032261851       -1.2254897628
 H          6.2332267784       -2.8206653836        0.2816562959
 H          4.4940536675       -3.0095333141       -1.2613929737
 H          5.0913762358       -1.7000383724       -2.2711283663
 O          3.2638009264       -0.4416357662       -1.7519054357
 C          2.2455552002        0.4798054942       -1.5604067611
 O          1.7802806942        0.9567787577       -2.6118548722
 H         -0.3358540039       -0.6309742304        0.2962778521
 C         -0.9440154283       -0.0223394657       -0.3616241373
 C         -0.5341398714        1.2741566892       -0.6513759454
 C         -1.3316333499        2.0491975732       -1.4819856616
 C         -2.4893867180        1.5245016296       -2.0320477848
 C         -2.8824063798        0.2282191237       -1.7581449021
 C         -2.1019016798       -0.5492893009       -0.9107713762
 N         -2.5062882152       -1.8603598138       -0.6051598390
 S         -4.1124372655       -2.0964239387       -0.1943314515
 O         -4.1159865152       -3.2517430715        0.6756765287
 O         -4.9074384850       -2.2105163433       -1.3916108505
 C         -4.5839835178       -0.6289758766        0.7048702544
 C         -5.5894548643        0.1828979740        0.2212626559
 C         -5.9115976404        1.3373656875        0.9168152628
 C         -5.2224529933        1.6604471550        2.0751474696
 C         -4.2172778404        0.8320519737        2.5507688517
 C         -3.8928689956       -0.3245591166        1.8610179987
 H         -3.1186727217       -0.9905361396        2.2078634506
 H         -3.6814355223        1.0839952697        3.4519419783
 H         -5.4688466820        2.5625542247        2.6124681876
 H         -6.6942401870        1.9820817833        0.5508819944
 H         -6.0963389014       -0.1042359973       -0.6855043273
 H         -1.8908898688       -2.3399094355        0.0349989695
 H         -3.7721307649       -0.1992830298       -2.1912117525
 H         -3.0926455970        2.1342238041       -2.6869166466
 H         -1.0423454447        3.0615304334       -1.7097289010
 C          0.7431448748        1.7678837930       -0.0177525496
 H          0.5945003689        1.7857663916        1.0723154213
 C          1.1596096956        3.1496122830       -0.4742727593
 C          0.5632076467        4.3657472525        0.1672047142
 C          1.9881086625        3.9948995088        0.4447303140
 H          2.7741383690        4.6009644062        0.0197171968
 H          2.2316988564        3.5829491612        1.4133528231
 H          0.3715148048        5.2317373206       -0.4480171854
 H         -0.1616772058        4.2115975821        0.9518556729
 H          1.3917323522        3.1868548800       -1.5326046368
 O          2.0703639994        0.3214556896        2.0483363705
