  62
        -98.93430036
 C         -2.2335648760       -1.0243665192        0.4860334274
 C         -2.3694859225       -0.0524761505       -0.5334388376
 C         -3.3328652667        1.0376225596       -0.2775202855
 C         -3.9814005223        1.0917836739        0.8997285022
 C         -4.9794787478        2.0916632372        1.4457132622
 C         -5.6701993159        3.0911699289        0.5213556535
 C         -6.6354491240        2.4695086993       -0.4873962930
 H         -6.9910758993        3.2607741610       -1.1508995516
 H         -7.4994481204        2.0770313955        0.0548705415
 C         -6.0658477521        1.3320831622       -1.3316156515
 H         -6.8567310827        0.9856989464       -2.0023794502
 H         -5.8035419487        0.4917459885       -0.6854523240
 C         -4.8556564476        1.6963665300       -2.1896093737
 H         -5.0936196257        2.5609372634       -2.8120955992
 H         -4.6572872051        0.8508431629       -2.8537782944
 C         -3.5587205855        1.9907811136       -1.4155258496
 H         -3.5308471693        3.0199859409       -1.0660012174
 H         -2.7166363856        1.8539193141       -2.1003230816
 H         -4.9333719769        3.7068508388        0.0139750432
 H         -6.2505284248        3.7582590017        1.1647197381
 H         -5.7403913857        1.4982003497        1.9627546619
 H         -4.4460036589        2.6503285493        2.2229282054
 O         -3.7543012648        0.1733295897        1.8861740056
 C         -2.8930788804       -0.8942259760        1.7085320566
 O         -2.7920181590       -1.6400004194        2.7041781763
 H          0.2704250093       -0.3838017211        1.4260886839
 C          0.7254201389       -0.7895108673        0.5291321582
 C          0.0389381174       -1.7588742713       -0.1933240368
 C          0.6330209692       -2.2735928575       -1.3371879273
 C          1.8750852914       -1.8190792304       -1.7457968930
 C          2.5488138861       -0.8478781947       -1.0293134673
 C          1.9644530646       -0.3262133835        0.1177075719
 N          2.6408996567        0.6724395673        0.8463264467
 S          4.1779026762        0.2942562031        1.4141088993
 O          4.3134355455       -1.1232690182        1.6606770385
 O          4.3887524358        1.1666470185        2.5491744869
 C          5.2613280931        0.7891792084        0.0913460588
 C          5.2391442342        2.1108151657       -0.3091117333
 C          6.0796546041        2.5128238132       -1.3348202846
 C          6.9251034075        1.5925388862       -1.9368173199
 C          6.9380709129        0.2701149353       -1.5203775555
 C          6.0988527478       -0.1389777751       -0.4956419051
 H          6.0697073528       -1.1571030613       -0.1418150182
 H          7.5963855733       -0.4434354327       -1.9892414955
 H          7.5778667643        1.9083176530       -2.7352522742
 H          6.0725763097        3.5403361664       -1.6612325916
 H          4.5706072156        2.7937880437        0.1880417790
 H          2.0870949240        1.0664222138        1.5935720012
 H          3.5119072376       -0.4861178315       -1.3504668731
 H          2.3219250406       -2.2235368101       -2.6411593121
 H          0.1155167755       -3.0159736614       -1.9218861544
 C         -1.2992146968       -2.2122114124        0.3385911078
 H         -1.1374404969       -2.5729334645        1.3688333964
 C         -1.8947917214       -3.3787152727       -0.4361222997
 C         -3.3763779475       -3.6039747987       -0.4723733892
 C         -2.6508360813       -3.1905436451       -1.7155937031
 H         -2.5217771350       -3.9234679984       -2.4985835897
 H         -2.7765295013       -2.1826058969       -2.0767315582
 H         -4.0052692745       -2.8773761925        0.0219453617
 H         -3.7422646278       -4.6171558362       -0.3988867331
 H         -1.2788724923       -4.2695820665       -0.3589545125
 O         -1.7231494324       -0.0750251423       -1.6112818221
