  62
        -98.93534726
 C          2.4361461978        1.1120766325        0.4185992875
 C          2.5182614010       -0.0860446905       -0.3295460564
 C          3.6753405158       -0.9451145530       -0.0371586610
 C          4.5583003463       -0.5771991871        0.9084275929
 C          5.7593809280       -1.3581414473        1.3730481892
 C          6.8802603816       -1.5690396323        0.3369853677
 C          6.7844652421       -2.8884153862       -0.4391227858
 H          6.2193988818       -3.6061192974        0.1568102035
 H          7.7889223440       -3.3003063588       -0.5560492382
 C          6.1744830707       -2.7953229066       -1.8409574616
 H          5.9385828158       -3.8093238481       -2.1709974987
 H          6.9212050227       -2.3915844950       -2.5285974524
 C          4.9208608024       -1.9293683126       -1.9667371999
 H          4.4817592023       -2.1061318317       -2.9506277103
 H          5.2000505110       -0.8733532789       -1.9391165713
 C          3.8571885873       -2.1745907729       -0.8788138042
 H          4.1294115341       -3.0277173279       -0.2593265727
 H          2.8898990989       -2.3792720122       -1.3420517201
 H          7.8225607818       -1.5659935219        0.8872050229
 H          6.9051101719       -0.7231173762       -0.3494334883
 H          6.1592773837       -0.7973285193        2.2203303242
 H          5.4229391525       -2.3287320210        1.7446652992
 O          4.4318358621        0.5796198364        1.6160346960
 C          3.3814510979        1.4512140739        1.3863482814
 O          3.3949595709        2.4745435546        2.1005960631
 H         -0.9349801524        1.6691631392       -1.4155252956
 C         -1.0467863574        1.2532293310       -0.4265474718
 C         -0.0204370234        1.3730015266        0.4952779621
 C         -0.2002873213        0.8289009875        1.7649157208
 C         -1.3697869634        0.1722135211        2.0932624626
 C         -2.3857719344        0.0374179027        1.1623094971
 C         -2.2213397836        0.5828545719       -0.1025258208
 N         -3.2360742018        0.4355264369       -1.0590260167
 S         -4.8363732009        0.6640013847       -0.6254527558
 O         -5.5178237607        0.9756228584       -1.8628912569
 O         -4.9660156417        1.6328010671        0.4382280630
 C         -5.3659697925       -0.9393452526       -0.0597476316
 C         -6.0038505199       -1.0611707059        1.1591147331
 C         -6.4205332004       -2.3159857475        1.5756062832
 C         -6.1943265305       -3.4207989901        0.7692909758
 C         -5.5548192397       -3.2811882973       -0.4535090531
 C         -5.1369450777       -2.0294807596       -0.8761349027
 H         -4.6375160969       -1.8808736746       -1.8189581162
 H         -5.3796881625       -4.1428861122       -1.0774361902
 H         -6.5178581092       -4.3965940429        1.0956742790
 H         -6.9180403405       -2.4264530779        2.5257543612
 H         -6.1525586632       -0.1754028403        1.7561306192
 H         -3.0267994495        0.8462241719       -1.9566597633
 H         -3.2984238088       -0.4789531287        1.4106861602
 H         -1.4925110340       -0.2445203010        3.0815400034
 H          0.5963407172        0.9289354960        2.4901545317
 C          1.2821504879        2.0731827273        0.1921630303
 H          1.4106135095        2.8799508023        0.9281141254
 C          1.3567319663        2.6673690380       -1.1983378154
 C          0.7080830293        3.9873256853       -1.4856341803
 C          2.2018127546        3.8837376203       -1.4216665407
 H          2.7643924172        3.9596437583       -2.3400928402
 H          2.7092999834        4.3001479733       -0.5635979326
 H          0.1979615919        4.4808886493       -0.6720300768
 H          0.2468491150        4.1389818572       -2.4501507967
 H          1.3537196741        1.9135746958       -1.9772560204
 O          1.6701029858       -0.4284313303       -1.1938108171
