  62
        -98.93016336
 C         -2.3324130768       -0.3414102682        0.8960910489
 C         -3.3804723321       -1.0094516958        0.2182459944
 C         -4.6967088937       -0.3370784960        0.2187153058
 C         -4.8391977966        0.8554955883        0.8237568206
 C         -6.0521838313        1.7438586677        1.0071154136
 C         -7.3123362233        1.5291294200        0.1723753630
 C         -7.1486969385        1.8129221617       -1.3202032539
 H         -8.0794226074        1.5402412901       -1.8225369998
 H         -6.9996156251        2.8871032945       -1.4558247629
 C         -5.9870859744        1.0965242665       -2.0045161823
 H         -5.9945441396        1.3814655941       -3.0601437651
 H         -5.0414511312        1.4462430968       -1.5848994941
 C         -6.0274565826       -0.4288714576       -1.9346624547
 H         -5.2444477336       -0.8086621693       -2.5963100380
 H         -6.9867431482       -0.7890147637       -2.3112708572
 C         -5.7877023608       -1.0358534569       -0.5409574505
 H         -6.7041274067       -1.0624727542        0.0434889903
 H         -5.4535960826       -2.0685962883       -0.6763259034
 H         -7.7016632947        0.5274029165        0.3280748216
 H         -8.0625748873        2.2238925346        0.5598008350
 H         -6.3213256680        1.6645630752        2.0662993332
 H         -5.6935687949        2.7671423378        0.8572801535
 O         -3.7959660544        1.4629280144        1.4640973446
 C         -2.5384729397        0.8933898590        1.5136290200
 O         -1.6960287373        1.5731666421        2.1357360632
 O         -3.2531996138       -2.1156810511       -0.3644734100
 C         -0.9206845122       -0.8916833656        1.0022597458
 C         -0.0739989594       -0.4920551714       -0.1787265221
 C         -0.5363486299       -0.6169932783       -1.4851787556
 C          0.2746332583       -0.2707720361       -2.5505211132
 C          1.5639799767        0.1843242510       -2.3375949927
 C          2.0324829188        0.3193897131       -1.0361179815
 C          1.2076499333       -0.0062061176        0.0317440776
 H          1.5803443550        0.1206170029        1.0378039045
 N          3.3292678992        0.7905098104       -0.7797035521
 S          4.1614554501        0.1154621882        0.5271318150
 O          3.9209604804       -1.3085543652        0.5780829932
 O          3.8382980019        0.8597989957        1.7185071436
 C          5.8471391161        0.4448641239        0.0493342501
 C          6.5765659857       -0.5436560303       -0.5839942200
 C          7.8761270598       -0.2679097422       -0.9794296359
 C          8.4197306512        0.9850380547       -0.7389408917
 C          7.6752912056        1.9667124627       -0.1014899882
 C          6.3757244436        1.6976952255        0.2975716823
 H          5.7626057114        2.4247341354        0.8043471163
 H          8.1023731172        2.9385027532        0.0866686370
 H          9.4313175541        1.1969711546       -1.0472363548
 H          8.4584908874       -1.0298850727       -1.4717883978
 H          6.1153793620       -1.5053613262       -0.7417366078
 H          3.9029027449        0.8444807565       -1.6102584304
 H          2.2003197436        0.4397815936       -3.1712647045
 H         -0.0963077432       -0.3718427899       -3.5594276386
 H         -1.5304795390       -1.0008002530       -1.6557330591
 H         -0.4871792128       -0.4035473269        1.8909938577
 C         -0.8802194739       -2.3934386190        1.2563106826
 C         -0.4490139223       -3.3971504107        0.2344415146
 C          0.4376598774       -3.0962484159        1.4030946223
 H          0.5403337363       -3.8384356449        2.1807599516
 H          1.3385267954       -2.5266103259        1.2211488747
 H         -0.9756832087       -4.3386831082        0.2066662601
 H         -0.1498141671       -3.0382240496       -0.7374639906
 H         -1.6719335966       -2.7062217573        1.9302323566
