  62
        -98.93589504
 C         -2.3609487693       -0.7571485629        0.2394592982
 C         -2.4390411493        0.6583561300        0.3035968099
 C         -3.6242896132        1.2753628980       -0.3004702881
 C         -4.5526045200        0.4973771633       -0.8856594236
 C         -5.8052766898        0.9722479561       -1.5709524951
 C         -6.9792714158        1.2341427234       -0.6176810997
 C         -6.8449461011        2.4850888076        0.2514311339
 H         -6.6143517244        3.3427820428       -0.3811069061
 H         -7.8213664803        2.6670577431        0.7046549339
 C         -5.7973922971        2.3709085252        1.3677664322
 H         -5.5475728957        1.3194874259        1.5277345563
 H         -6.2188270634        2.7454505102        2.3033259758
 C         -4.5073928067        3.1496725140        1.1093060515
 H         -4.7240056170        4.2198778183        1.0793356987
 H         -3.8233135033        2.9680948010        1.9424359925
 C         -3.7842814658        2.7614101478       -0.1870751760
 H         -4.3227191243        3.1526885555       -1.0502537905
 H         -2.7840968204        3.2019509353       -0.1683168862
 H         -7.1116142505        0.3585916177        0.0219343072
 H         -7.8781703328        1.3381244401       -1.2296381273
 H         -5.5890905109        1.8761754303       -2.1411039741
 H         -6.0962923465        0.1823271889       -2.2665596441
 O         -4.4391031506       -0.8542063614       -0.9379492274
 C         -3.3550038691       -1.5205608198       -0.3750153092
 O         -3.4158064546       -2.7565234419       -0.5006896751
 H          1.4303003520       -0.5685494689        1.0360043165
 C          1.2317096828       -1.0916941909        0.1126605167
 C         -0.0402766537       -1.5801269258       -0.1481225799
 C         -0.2757165313       -2.2292475304       -1.3567788962
 C          0.7438623603       -2.3813384781       -2.2781281366
 C          2.0091145620       -1.8848710787       -2.0183434319
 C          2.2560774401       -1.2370950972       -0.8134245854
 N          3.5442039100       -0.7615065012       -0.5123427384
 S          3.7003963895        0.6918291166        0.3363192930
 O          3.4474060536        0.4409133991        1.7325182956
 O          2.9073828439        1.7228358467       -0.2940996175
 C          5.4378315151        1.0109198463        0.0921614702
 C          6.3520900210        0.3279411075        0.8720440918
 C          7.7044995073        0.5516176057        0.6692475117
 C          8.1182365734        1.4492211499       -0.3040426743
 C          7.1891408700        2.1292019386       -1.0769653012
 C          5.8347674221        1.9089090865       -0.8804081372
 H          5.0761424178        2.4209590944       -1.4505337938
 H          7.5134563403        2.8292182937       -1.8300350297
 H          9.1714176685        1.6224766627       -0.4590536828
 H          8.4297896698        0.0273508331        1.2702934127
 H          5.9834667751       -0.3517063209        1.6223960910
 H          4.1555249627       -0.7730247909       -1.3182438731
 H          2.8010295204       -1.9993400740       -2.7429901026
 H          0.5491426775       -2.8863110313       -3.2123938203
 H         -1.2637247812       -2.6128639185       -1.5620308471
 C         -1.1376017808       -1.3979335403        0.8699193055
 H         -0.7788507902       -0.6540748662        1.6004914336
 C         -1.4501433313       -2.6726985572        1.6420703905
 C         -0.9957813051       -4.0341273430        1.2190087673
 C         -0.3578677067       -3.3691817301        2.3991367623
 H         -0.5712871308       -3.7450359968        3.3882985208
 H          0.6454978185       -2.9876009070        2.2778170535
 H         -1.6722444183       -4.8579678635        1.3870425881
 H         -0.4210398083       -4.1221755321        0.3110980446
 H         -2.4203644367       -2.6218463789        2.1260899246
 O         -1.5556252663        1.3747761517        0.8494116329
