  62
        -98.94477338
 C         -1.8398878604       -0.7382690907        0.4098445386
 C         -2.4562764505       -0.1601279596       -0.7264556107
 C         -3.5141851807        0.8191768899       -0.4447607397
 C         -3.8009095707        1.1500415585        0.8272792907
 C         -4.8337217609        2.1499469678        1.2715698418
 C         -6.2562077608        1.5800764675        1.3579527412
 C         -6.9322609208        1.3125672288        0.0126638809
 H         -7.9885017708        1.1264129084        0.2170127507
 H         -6.8737896110        2.2084716395       -0.6062958781
 C         -6.3599751906        0.1140476697       -0.7571495604
 H         -5.7784697204       -0.5120831309       -0.0766030711
 H         -7.1799810505       -0.5004788500       -1.1353285410
 C         -5.4853710507        0.4879314512       -1.9540069700
 H         -5.1057624605       -0.4336448083       -2.4023527410
 H         -6.0904106908        1.0024259019       -2.7037898094
 C         -4.2827321308        1.3747280610       -1.6053163491
 H         -3.6105161008        1.3977429021       -2.4667584090
 H         -4.6133704410        2.3914279907       -1.3932540080
 H         -6.2278522006        0.6571593169        1.9417965002
 H         -6.8633067110        2.3026742868        1.9081481620
 H         -4.5354495310        2.4837652368        2.2678875621
 H         -4.8245600211        3.0095509886        0.6006686727
 O         -3.1445191506        0.6117666675        1.8901615301
 C         -2.1639070204       -0.3511902121        1.7093888291
 O         -1.6510901004       -0.7676429131        2.7690548086
 O         -2.1416108405       -0.4413330582       -1.9111680510
 C         -0.7517567902       -1.7820426803        0.2323063475
 C          0.4140161097       -1.1821072192       -0.5168957519
 C          1.0385834198       -1.8015493680       -1.5906538425
 C          2.0998278197       -1.1869465771       -2.2341845219
 C          2.5669643894        0.0452729526       -1.8174934406
 C          1.9629403293        0.6633095813       -0.7290663699
 C          0.9024916095        0.0456172204       -0.0854073306
 H          0.4315187594        0.5304094394        0.7614067700
 N          2.4424506791        1.9063412109       -0.2820106086
 S          4.0990956991        2.0989723711       -0.1426922984
 O          4.2799159489        3.0935095100        0.8915994227
 O          4.6588011090        2.4240847626       -1.4309612081
 C          4.7104685294        0.5119486706        0.3968695299
 C          4.2438235595        0.0092188092        1.5953819094
 C          4.6780690397       -1.2379806411        2.0134095580
 C          5.5669921499       -1.9578190801        1.2294428272
 C          6.0307463097       -1.4367432187        0.0317472878
 C          5.5980995095       -0.1904518184       -0.3923301009
 H          5.9300855994        0.2510641127       -1.3177511604
 H          6.7231088198       -1.9980193080       -0.5745847328
 H          5.8994605200       -2.9303277904        1.5564264262
 H          4.3173958798       -1.6438690822        2.9450395076
 H          3.5558278294        0.5944938285        2.1849040400
 H          1.9612438490        2.2636990599        0.5297031718
 H          3.3791710693        0.5445915033       -2.3203173601
 H          2.5670414897       -1.6735907461       -3.0764320324
 H          0.6880765800       -2.7609619177       -1.9329325835
 H         -0.4074444201       -2.0363801713        1.2454855472
 C         -1.3175541900       -3.0271879097       -0.4174617338
 C         -0.7081694197       -4.3672365499       -0.1384507652
 C         -2.0473701198       -4.0187146907        0.4363321351
 H         -2.9258885997       -4.4994711205        0.0327265046
 H         -2.1136992298       -3.8083894019        1.4942432054
 H         -0.6690769996       -5.0926211690       -0.9369634760
 H          0.1361539403       -4.4026532904        0.5330413447
 H         -1.7107309500       -2.8369998387       -1.4092998136
