  62
        -98.93865925
 C          1.9548786423        1.3772454216        0.3026856192
 C          2.6051493656        0.8147903039       -0.8199540515
 C          3.7898080881       -0.0176572874       -0.5377004739
 C          4.1758209188       -0.1971991687        0.7373864311
 C          5.3134459430       -1.0425354963        1.2400443071
 C          4.8209733439       -2.4514005857        1.6120332810
 C          4.8015019317       -3.4534751055        0.4582019766
 H          5.8279620039       -3.7199296921        0.1976914135
 H          4.3108727801       -4.3592799568        0.8223009293
 C          4.0834819793       -2.9815362975       -0.8091399134
 H          3.8144966749       -3.8660260783       -1.3900987594
 H          3.1518597615       -2.4788318346       -0.5415058055
 C          4.9450720247       -2.0567579999       -1.6820683655
 H          5.9775602656       -2.1013151933       -1.3358781974
 H          4.9466068241       -2.4286406182       -2.7087444655
 C          4.4822635970       -0.5935262492       -1.7425198400
 H          5.3396338140        0.0414585948       -1.9894991858
 H          3.7605380411       -0.4742650738       -2.5569807850
 H          3.8166353488       -2.3551925154        2.0330305054
 H          5.4656277372       -2.8526569179        2.3966580744
 H          6.1143289145       -1.0862400544        0.5081856166
 H          5.6875199111       -0.5558357656        2.1432582264
 O          3.5091324200        0.3517646347        1.7908469619
 C          2.3861616558        1.1372071446        1.6059996199
 O          1.8636687996        1.5502459364        2.6619135257
 H         -0.1004766574       -0.1941308962        0.7364637612
 C         -0.6580123085        0.1934982811       -0.1079518590
 C         -0.3597807699        1.4639011311       -0.5866256803
 C         -1.0957284384        1.9565119027       -1.6557015212
 C         -2.0769107742        1.1799095190       -2.2490149062
 C         -2.3529865445       -0.0927879520       -1.7861699495
 C         -1.6378524023       -0.5865214167       -0.7016175313
 N         -1.9261055860       -1.8697731304       -0.2074463148
 S         -3.5345093549       -2.2957887098       -0.0274346393
 O         -3.5512612116       -3.2644882392        1.0464354577
 O         -4.0602917313       -2.7505480620       -1.2904901912
 C         -4.3683135368       -0.7970477232        0.4655403398
 C         -5.3834522523       -0.2848400072       -0.3163643738
 C         -5.9979730837        0.8952140835        0.0711440895
 C         -5.5853889960        1.5414982366        1.2257616966
 C         -4.5661257574        1.0123913837        2.0029488918
 C         -3.9502437806       -0.1683925076        1.6217901636
 H         -3.1575449998       -0.6058881605        2.2078840461
 H         -4.2452797228        1.5158103422        2.9009475967
 H         -6.0599014514        2.4628257738        1.5243963208
 H         -6.7920431147        1.3078689614       -0.5299226264
 H         -5.6695608095       -0.8180596411       -1.2082847721
 H         -1.3824624712       -2.1326261975        0.6008825838
 H         -3.0997633476       -0.7163725261       -2.2502309498
 H         -2.6318658046        1.5706860102       -3.0879412716
 H         -0.8942991214        2.9450341174       -2.0334903431
 C          0.7264677813        2.2479815368        0.1099372663
 H          0.3701509778        2.4955386382        1.1207483302
 C          1.1013731908        3.5313215502       -0.6011737075
 C          0.3243671979        4.7877503201       -0.3508991911
 C          1.7124019118        4.6438297640        0.1948686727
 H          2.5077959247        5.2213305136       -0.2518181163
 H          1.8339211500        4.4843830482        1.2567382410
 H          0.1679592565        5.4700490356       -1.1726815355
 H         -0.4996733391        4.7362109381        0.3443299543
 H          1.4916024903        3.3563336740       -1.5969925206
 O          2.2149544615        0.9908186880       -2.0033582286
