  62
        -98.94416859
 C         -2.6199545401       -1.1090148794        0.1998530406
 C         -2.7359630802       -0.3116765993       -0.9645911493
 C         -3.5765686302        0.8877905507       -0.8357976491
 C         -4.1779696500        1.1496728006        0.3390490810
 C         -5.0158025900        2.3624047306        0.6220789612
 C         -4.1632665999        3.5059541005        1.1896592712
 C         -2.8960075700        3.7900329506        0.3829170610
 H         -2.3896592600        4.6329096505        0.8586226210
 H         -2.2256963200        2.9301833806        0.4571535009
 C         -3.1444384402        4.1104598307       -1.0977387589
 H         -4.1881522903        4.3899757307       -1.2452933487
 H         -2.5352718003        4.9730595507       -1.3755979289
 C         -2.7814155504        2.9789103808       -2.0613860390
 H         -1.7662042703        2.6307438407       -1.8536541892
 H         -2.7869390205        3.3833355708       -3.0768981990
 C         -3.7183560304        1.7643896508       -2.0482454890
 H         -3.4565212305        1.1347421408       -2.9035005091
 H         -4.7520990804        2.0948514508       -2.1671447788
 H         -3.8690630698        3.2456394704        2.2093126111
 H         -4.7781539799        4.4066146305        1.2337339113
 H         -5.5053192401        2.6811910706       -0.2959517887
 H         -5.7776814999        2.0910717905        1.3547566513
 O         -4.0465481399        0.3558641105        1.4336522709
 C         -3.2545826799       -0.7808660595        1.3965657707
 O         -3.1930785997       -1.4018387696        2.4783420707
 O         -2.1669078104       -0.5841087692       -2.0526918794
 C         -1.7619944601       -2.3601936694        0.1716503204
 C         -0.3423393401       -2.0169224494       -0.2125950998
 C          0.4106874697       -2.7766805193       -1.0979204199
 C          1.7149861397       -2.4200290493       -1.3946440901
 C          2.2961486898       -1.3059534994       -0.8186055201
 C          1.5574245799       -0.5462164094        0.0793110101
 C          0.2542694400       -0.9102962794        0.3796764902
 H         -0.3184074599       -0.3191264995        1.0854977303
 N          2.1395535300        0.5935939905        0.6653522801
 S          3.6027227401        0.3908902805        1.4680816898
 O          3.7249962802       -0.9425347296        2.0110797297
 O          3.6668058903        1.4800516704        2.4182892999
 C          4.8281207299        0.6499636806        0.2030500897
 C          4.8019976898        1.8408469006       -0.4960389202
 C          5.7538618697        2.0599705707       -1.4789610303
 C          6.7118113597        1.0919487007       -1.7421239505
 C          6.7269294298       -0.0965777894       -1.0283447006
 C          5.7765797199       -0.3229556794       -0.0447797805
 H          5.7443980800       -1.2340465995        0.5310536094
 H          7.4725602097       -0.8475975493       -1.2341481808
 H          7.4510362096        1.2653068408       -2.5081323906
 H          5.7452854196        2.9829712007       -2.0360280403
 H          4.0431640899        2.5677428906       -0.2586603100
 H          1.4995555701        1.1216251305        1.2410481902
 H          3.3079939098       -1.0199306093       -1.0547379602
 H          2.2856057796       -3.0166995493       -2.0897194502
 H         -0.0250602503       -3.6474082993       -1.5594063000
 H         -1.7480662199       -2.7438705595        1.2031409704
 C         -2.3945951702       -3.4036205193       -0.7263959196
 C         -2.2115900302       -4.8625019094       -0.4379478997
 C         -3.5392592901       -4.2114846194       -0.1957926495
 H         -4.3588297602       -4.4436133993       -0.8591099994
 H         -3.8430938300       -4.0273973395        0.8248491606
 H         -2.1229675803       -5.5457601293       -1.2690965598
 H         -1.6165262400       -5.1322110694        0.4216547802
 H         -2.4434359104       -3.0853246493       -1.7613206496
