  62
        -98.93399320
 C          1.8385984795        0.5783883001        0.0216487948
 C          2.3716215693       -0.7045344465        0.3009122168
 C          3.7824640851       -0.9358331967       -0.0531707124
 C          4.4796243960        0.0612493873       -0.6243409979
 C          5.9325540322        0.0622349483       -1.0121806093
 C          6.7982030717        0.6347541008        0.1230376874
 C          7.2506304614       -0.3860572616        1.1663796770
 H          7.9985931433       -1.0460223216        0.7219338854
 H          7.7392365318        0.1670618226        1.9718374505
 C          6.1359617417       -1.2462476355        1.7675025053
 H          6.4957091916       -1.6444416053        2.7183029383
 H          5.2668722232       -0.6232508330        1.9868096090
 C          5.7227193092       -2.4173824645        0.8636394931
 H          6.4599842695       -2.5326046643        0.0693026580
 H          5.7424712695       -3.3443480918        1.4407000810
 C          4.3182105836       -2.3079820820        0.2520532853
 H          3.5861425065       -2.7434027438        0.9398827905
 H          4.2789933364       -2.9091811079       -0.6627906351
 H          7.6899637555        1.0903756619       -0.3120996453
 H          6.2284966726        1.4307129228        0.6093565101
 H          6.2580450303       -0.9355247764       -1.2909235094
 H          6.0215313021        0.7174250345       -1.8811966403
 O          3.9295162840        1.2765445234       -0.8854810803
 C          2.6081349858        1.5737040124       -0.5824095129
 O          2.2729572302        2.7289852743       -0.8980776633
 O          1.6945512065       -1.6215743558        0.8418710508
 C          0.3870440171        0.8111044734        0.4039414398
 C         -0.5232523547        0.4752999254       -0.7495371762
 C         -0.3424960739        1.0615225418       -1.9995331688
 C         -1.1746173215        0.7328012575       -3.0531529564
 C         -2.2019406275       -0.1787688684       -2.8821983986
 C         -2.3854562924       -0.7765989732       -1.6407521955
 C         -1.5503705473       -0.4421481113       -0.5817582631
 H         -1.6846622307       -0.9360253161        0.3688080252
 N         -3.4034201902       -1.7181462139       -1.4545474554
 S         -4.1508445472       -1.9340239925        0.0168851809
 O         -3.2927001892       -2.6506481619        0.9260778991
 O         -5.4008552961       -2.5838841155       -0.3150917257
 C         -4.4805646291       -0.2988636505        0.6514740260
 C         -5.0553438964        0.6407082250       -0.1818832216
 C         -5.3400104804        1.8994557210        0.3221991191
 C         -5.0561268137        2.1947697831        1.6467215610
 C         -4.4848951604        1.2393842974        2.4727059312
 C         -4.1906869222       -0.0192608754        1.9713821202
 H         -3.7341773452       -0.7872059480        2.5756334972
 H         -4.2610361255        1.4699234115        3.5019000958
 H         -5.2780178814        3.1750136594        2.0372517457
 H         -5.7815626036        2.6455310192       -0.3184894028
 H         -5.2751680648        0.3824740775       -1.2047685572
 H         -4.0283269361       -1.8494056496       -2.2350946924
 H         -2.8477581599       -0.4388361565       -3.7068780412
 H         -1.0237821650        1.1928713832       -4.0180256107
 H          0.4583077028        1.7729737027       -2.1326773503
 H          0.1872491894        0.0758049189        1.2000065712
 C          0.1320864403        2.1942890518        0.9872544412
 C         -0.7152521995        3.2346836805        0.3239351927
 C         -1.2218041532        2.5261154774        1.5414056479
 H         -1.2820257367        3.0678569581        2.4727830762
 H         -2.0027633165        1.7931187010        1.4032555851
 H         -0.3973332760        4.2621352266        0.4118382800
 H         -1.1660101507        2.9990782551       -0.6265555900
 H          0.9885536891        2.5608508126        1.5437620278
