  62
        -98.93916022
 C          2.5380014196        0.9653252407       -0.3069038193
 C          2.4555393296       -0.4303060295       -0.0812569602
 C          3.6208974495       -1.0380966799        0.5751238395
 C          4.6592580494       -0.2692745802        0.9487589302
 C          5.9049491493       -0.7401213806        1.6493137001
 C          6.9764848995       -1.3072924900        0.7079317899
 C          6.6596086496       -2.6793652696        0.1117655389
 H          7.5794976396       -3.0500812793       -0.3448118012
 H          6.3931187995       -3.3692882001        0.9130002084
 C          5.5515197697       -2.6674664589       -0.9504092013
 H          5.3968985198       -1.6454200986       -1.3037298506
 H          5.8671298599       -3.2596530183       -1.8123072616
 C          4.2134065497       -3.2344475892       -0.4763985819
 H          4.3265369096       -4.2958446694       -0.2448656926
 H          3.4935249598       -3.1424844887       -1.2934569219
 C          3.6277399195       -2.5266616600        0.7524427485
 H          2.5910439395       -2.8499670901        0.8741664682
 H          4.1868625093       -2.8007807806        1.6467524184
 H          7.1480966996       -0.5902476094       -0.0981575196
 H          7.9024239994       -1.3895497204        1.2818150900
 H          6.3214825992        0.1309443990        2.1596934808
 H          5.6433098092       -1.4885958311        2.3978511096
 O          4.6846897595        1.0749180200        0.7433638511
 C          3.6376606395        1.7195459104        0.1073524114
 O          3.8001599096        2.9494447205       -0.0276467077
 H         -0.8838716903        0.1766606512       -1.0605980503
 C         -0.8685349804        0.8589196606       -0.2255472699
 C          0.2106334996        1.7100385905       -0.0521090291
 C          0.2141585494        2.5685864697        1.0441430215
 C         -0.8355807307        2.5699607091        1.9426443813
 C         -1.9053189707        1.7075613992        1.7753227906
 C         -1.9155862405        0.8434005600        0.6891871200
 N         -2.9778534805       -0.0654887099        0.5291554592
 S         -4.5496351305        0.5088316299        0.7450941393
 O         -4.7495692404        1.7185380704       -0.0226860599
 O         -4.8111529408        0.6139016190        2.1588641194
 C         -5.4961965704       -0.8335021296        0.0553510183
 C         -5.9702394402       -0.7380985087       -1.2390742117
 C         -6.6844781101       -1.8003714584       -1.7708066925
 C         -6.9086490803       -2.9340092189       -1.0042580834
 C         -6.4260591205       -3.0148500898        0.2936694567
 C         -5.7121828105       -1.9561517601        0.8317915875
 H         -5.3255564607       -1.9707925508        1.8373902975
 H         -6.6042892605       -3.8972224102        0.8868987560
 H         -7.4650232602       -3.7590064586       -1.4203821640
 H         -7.0632795900       -1.7398888877       -2.7784060126
 H         -5.7793792302        0.1656292916       -1.7954332311
 H         -2.8976163904       -0.5888262793       -0.3320656211
 H         -2.7302051508        1.6970807688        2.4692572604
 H         -0.8222152609        3.2458047686        2.7848412718
 H          1.0573651994        3.2317724097        1.1833519521
 C          1.4012792297        1.7179551511       -0.9804115989
 H          1.7445192797        2.7569072312       -1.0768820682
 C          1.1134401499        1.1714032121       -2.3627171093
 C          0.3035528301        1.9890181127       -3.3220738489
 C          1.7735357401        1.8052508729       -3.5485052088
 H          2.0954685302        1.1696620734       -4.3597846392
 H          2.4289883701        2.6444199328       -3.3658180181
 H         -0.3847396498        1.4825388332       -3.9814029294
 H         -0.0416381900        2.9547509225       -2.9843744483
 H          0.9929199599        0.0954569621       -2.3816605301
 O          1.4710355096       -1.1417689993       -0.4094709009
