  62
        -98.94648146
 C          1.1961961501        1.1199040100        0.5649537199
 C          1.6764548700        0.5849193299       -0.6555953501
 C          2.4807378495       -0.6391019804       -0.5353306001
 C          2.6145608192       -1.2401422005        0.6597797199
 C          3.3863765187       -2.5016303609        0.9367490598
 C          4.8882070588       -2.2729318714        1.1585541199
 C          5.6865715690       -1.9181032817       -0.0967443900
 H          5.4859796087       -2.6552137016       -0.8748627301
 H          6.7437444889       -2.0006280621        0.1635625300
 C          5.4216382295       -0.5065651316       -0.6394419700
 H          6.3725083997       -0.0230102119       -0.8745086099
 H          4.9398820397        0.0965691186        0.1336161001
 C          4.5660030496       -0.4639330212       -1.9058153700
 H          5.1021112295       -0.9464071413       -2.7260409000
 H          4.4080891400        0.5829279889       -2.1768668600
 C          3.1917019394       -1.1307874106       -1.7599437101
 H          3.3077738789       -2.2139038307       -1.7307611501
 H          2.5849218295       -0.8608954204       -2.6273107201
 H          5.3001854184       -3.1946631016        1.5760194699
 H          5.0152033990       -1.4854202315        1.9051114500
 H          3.2435084785       -3.2110319308        0.1212748798
 H          2.9683230185       -2.9304891007        1.8500603098
 O          2.0215924193       -0.7635333604        1.7872358399
 C          1.3335420598        0.4366590299        1.7739909299
 O          0.8824003898        0.7803910700        2.8873304999
 O          1.4641251402        1.0958351700       -1.7835090001
 C          0.4380949606        2.4388081503        0.5994277399
 C         -0.9360754095        2.2056424408        0.0220693198
 C         -1.3542907392        2.6823839111       -1.2122070102
 C         -2.6132713393        2.3636834716       -1.6945632302
 C         -3.4776204997        1.5722306719       -0.9601669903
 C         -3.0676568599        1.0959309416        0.2786545997
 C         -1.8083309798        1.4123920411        0.7590031698
 H         -1.4833841000        1.0306236610        1.7189704198
 N         -3.9336996103        0.2643432419        1.0273597596
 S         -4.2422701308       -1.2207091579        0.3129763995
 O         -5.1380965207       -1.0263373675       -0.7979487405
 O         -4.7192480612       -2.0767461778        1.3752277094
 C         -2.6519410010       -1.7756278285       -0.2733420204
 C         -1.7887687712       -2.3646891289        0.6287942196
 C         -0.5304351914       -2.7505419593        0.1982604596
 C         -0.1557757112       -2.5307712594       -1.1181424403
 C         -1.0285383709       -1.9256644190       -2.0080714704
 C         -2.2903167208       -1.5417807086       -1.5843660804
 H         -3.0003576406       -1.0744128883       -2.2466074704
 H         -0.7259701508       -1.7464118591       -3.0269691503
 H          0.8238006587       -2.8309818598       -1.4525830903
 H          0.1556300484       -3.2129344996        0.8901177396
 H         -2.1178408314       -2.5251724688        1.6434929996
 H         -3.6019885904        0.1115348318        1.9701200796
 H         -4.4540839997        1.3020868322       -1.3285007604
 H         -2.9245744791        2.7363199917       -2.6584959602
 H         -0.6895095590        3.2889808108       -1.8041036901
 H          0.3139984306        2.6854522003        1.6632611099
 C          1.2142900511        3.5516016500       -0.0694838200
 C          0.8655203816        4.9766294901        0.2337183401
 C          2.1417440313        4.3897759796        0.7559375601
 H          3.0752607115        4.7096503093        0.3177415702
 H          2.2095311412        4.1705061295        1.8119192301
 H          0.9227198819        5.7033832502       -0.5620560599
 H          0.0655925616        5.1559732104        0.9363142700
 H          1.5317827510        3.3071856599       -1.0750649000
