  62
        -98.94671939
 C         -1.9922548821       -1.4553625097       -0.0971011629
 C         -1.7150524177       -0.2170756303       -0.7222731548
 C         -2.8656115363        0.6777226843       -0.9094562884
 C         -4.0885024279        0.2674573453       -0.5265414296
 C         -5.3354582555        1.0984173873       -0.6092141057
 C         -5.5628952784        1.8886571617        0.6874334306
 C         -4.3279371799        2.6461935612        1.1756221683
 H         -4.6160571027        3.1874726226        2.0793876541
 H         -3.5589161767        1.9259402872        1.4642018326
 C         -3.7412060468        3.6314176821        0.1550548009
 H         -3.5128367897        4.5690437829        0.6660222134
 H         -4.4823488468        3.8537339441       -0.6134811361
 C         -2.4470100693        3.1592515015       -0.5103977476
 H         -2.0067187311        4.0109932009       -1.0360736962
 H         -1.7380383081        2.8398623546        0.2581322461
 C         -2.6000258150        2.0213562039       -1.5278917350
 H         -3.3775017934        2.2752867771       -2.2511366211
 H         -1.6519626382        1.9207026227       -2.0648388852
 H         -6.3822291953        2.5910702108        0.5239560275
 H         -5.8665536857        1.1892056138        1.4698398696
 H         -6.1837672996        0.4313244618       -0.7712432425
 H         -5.2562058568        1.7801110207       -1.4538034320
 O         -4.3215816926       -0.9477850928        0.0330070638
 C         -3.2817086221       -1.8291307766        0.2808901406
 O         -3.6266144151       -2.8926599662        0.8343447308
 O         -0.5661474284        0.1291616399       -1.1004104658
 C         -0.8591686418       -2.4276848150        0.1796594234
 C          0.1938080533       -1.7465518772        1.0198902890
 C         -0.1924337531       -1.1625348907        2.2247962569
 C          0.7283456915       -0.5186599716        3.0273675709
 C          2.0551524863       -0.4345678140        2.6406601875
 C          2.4526088906       -1.0179345584        1.4446478423
 C          1.5266164198       -1.6800593455        0.6475898987
 H          1.8659082041       -2.1174833709       -0.2758148055
 N          3.7991678726       -0.9712353329        1.0369180247
 S          4.2013877833       -0.3222008299       -0.4543064496
 O          3.5653146576       -1.0716982849       -1.5052802804
 O          5.6486305328       -0.3096754002       -0.4644952544
 C          3.5989417620        1.3562527475       -0.3987134898
 C          4.4946118675        2.3634181348       -0.0923263353
 C          4.0343434817        3.6657918564        0.0087339365
 C          2.6884658994        3.9374354520       -0.1878950994
 C          1.8036802368        2.9142523703       -0.4890166257
 C          2.2562425110        1.6076916082       -0.5963500532
 H          1.5755132054        0.8047476323       -0.8310478378
 H          0.7549458466        3.1136643118       -0.6427783445
 H          2.3267380096        4.9505014295       -0.1073527132
 H          4.7228034150        4.4623214727        0.2412604356
 H          5.5321409309        2.1057297553        0.0476559876
 H          4.4207146680       -0.5912361534        1.7374580922
 H          2.7766464698        0.0742750447        3.2619709099
 H          0.4117103260       -0.0718310128        3.9577350693
 H         -1.2315266419       -1.2221435300        2.5207259455
 H         -1.2956956631       -3.2448600045        0.7724090308
 C         -0.3268594532       -3.0008535954       -1.1166164631
 C          0.3229070316       -4.3506766407       -1.1284989371
 C         -1.0328050515       -4.1655245000       -1.7398677644
 H         -1.1240924231       -4.1982842463       -2.8152569358
 H         -1.8904637130       -4.5629120644       -1.2162876746
 H          1.1666006799       -4.5086434161       -1.7836224942
 H          0.3877304148       -4.8825773508       -0.1911809850
 H          0.0672783159       -2.2426006972       -1.7841993522
