  62
        -98.94385389
 C         -1.7815139065        0.6485275520       -0.4990579062
 C         -3.0514803379        0.6914738961       -1.1220888047
 C         -4.2113682325        0.5582632532       -0.2309130755
 C         -4.0106468740        0.4207445719        1.0926970738
 C         -5.0980713218        0.2213030241        2.1075595025
 C         -5.3808433383       -1.2705656799        2.3333094213
 C         -5.5744884024       -2.0651891346        1.0417618778
 H         -4.6328905245       -2.0810324843        0.4879489216
 H         -5.7969331328       -3.0964873287        1.3243855026
 C         -6.6887600198       -1.5331864530        0.1296629610
 H         -7.2853590467       -2.3771844552       -0.2230190392
 H         -7.3538759795       -0.8822592809        0.6983391664
 C         -6.1916896043       -0.7896835650       -1.1115515980
 H         -7.0402210891       -0.6504245335       -1.7867644109
 H         -5.4551475768       -1.4038918101       -1.6360917464
 C         -5.5759145156        0.5924307666       -0.8595452711
 H         -5.4462421632        1.0794838825       -1.8305840019
 H         -6.2612679315        1.1966740271       -0.2616247133
 H         -6.2726574589       -1.3627640005        2.9558680112
 H         -4.5395145536       -1.7043116210        2.8789081901
 H         -6.0011596598        0.7256340595        1.7692458980
 H         -4.7752866517        0.6669361999        3.0499595815
 O         -2.7769404815        0.4015909062        1.6571815119
 C         -1.6308515182        0.5079536211        0.8810303402
 O         -0.5690719870        0.4657470175        1.5274652073
 O         -3.2061327967        0.8329319244       -2.3657287762
 C         -0.5436996971        0.7850126460       -1.3632205046
 C          0.3758521111       -0.4044134642       -1.2294039832
 C         -0.1370516214       -1.6708418515       -0.9669883724
 C          0.6989956653       -2.7622260056       -0.8212853801
 C          2.0695148039       -2.6209696347       -0.9511611733
 C          2.5905411499       -1.3697242583       -1.2439993467
 C          1.7494147903       -0.2728504307       -1.3819831000
 H          2.1755375348        0.6940615534       -1.6026126444
 N          3.9931129652       -1.2284807967       -1.3715465121
 S          4.8359715712       -1.2177443007        0.0792099606
 O          6.2293249795       -1.0633911478       -0.2719287182
 O          4.4855634873       -2.3986074439        0.8238957542
 C          4.2516473763        0.2528437296        0.9009478981
 C          3.0103071267        0.2272103324        1.5040011537
 C          2.4997372658        1.3997377740        2.0388110549
 C          3.2395582393        2.5699517293        1.9650100883
 C          4.4897619568        2.5779433077        1.3633833559
 C          4.9985904712        1.4120070653        0.8153057733
 H          5.9608595029        1.3739541601        0.3303551960
 H          5.0619763140        3.4904421675        1.3118533763
 H          2.8358224785        3.4815947488        2.3775164052
 H          1.5145295681        1.3838005129        2.4777202718
 H          2.4504390453       -0.6928934673        1.5485905123
 H          4.2618826397       -0.4115341436       -1.9039309045
 H          2.7392208669       -3.4543718080       -0.8167996757
 H          0.2795267524       -3.7328670536       -0.6027751221
 H         -1.2067645721       -1.7915338632       -0.8635733829
 H         -0.9159305030        0.8142797339       -2.3990533700
 C          0.1581549603        2.0958920486       -1.0611324899
 C          0.8175848089        2.8834829668       -2.1529691244
 C         -0.4592799875        3.3737782344       -1.5412521784
 H         -0.4274045427        4.2377685138       -0.8949656987
 H         -1.3674605321        3.2960153472       -2.1212390234
 H          1.7292018861        3.4159015788       -1.9257571391
 H          0.7734555617        2.4873937080       -3.1565964576
 H          0.6184956766        2.1004003074       -0.0793531711
