  62
        -98.94437882
 C          2.3747177397       -1.1352562390       -0.2444375290
 C          2.3789681182        0.1567478489        0.3352084683
 C          3.3907520222        1.0850131414       -0.1873097209
 C          4.2150983619        0.6949337571       -1.1760963723
 C          5.2802571553        1.5345043682       -1.8276712622
 C          6.6093015188        1.5642274604       -1.0604311821
 C          6.5978984176        2.3849587488        0.2297788650
 H          7.6368138872        2.5007712790        0.5448309834
 H          6.2077906290        3.3817533915        0.0216600913
 C          5.8027597657        1.7485950752        1.3782934053
 H          5.6400996927        0.6894797000        1.1659833210
 H          6.3862292255        1.8046281382        2.2999929456
 C          4.4525506496        2.4091245097        1.6573732114
 H          4.6089964347        3.4348920835        1.9987345697
 H          3.9607416244        1.8581126373        2.4630983539
 C          3.5016982387        2.4357259004        0.4533921905
 H          2.5062358430        2.7188448147        0.8055923300
 H          3.8362436006        3.1754565936       -0.2738085903
 H          6.9062864707        0.5371614811       -0.8364332788
 H          7.3611333100        1.9894900827       -1.7291283503
 H          5.4607217191        1.0969052984       -2.8118703105
 H          4.9129962163        2.5523398248       -1.9623232255
 O          4.1569136240       -0.5458411557       -1.7284662024
 C          3.2487774379       -1.4871165377       -1.2756514443
 O          3.3142045783       -2.5854825731       -1.8629589940
 H         -0.5898421872       -1.0075681038        1.7174420295
 C         -0.8759779647       -1.1348202001        0.6856743767
 C         -0.0015210667       -1.7366926909       -0.2039955673
 C         -0.3849451600       -1.8588992671       -1.5371268314
 C         -1.6145700480       -1.3943515171       -1.9626065313
 C         -2.4848180773       -0.7899425369       -1.0711021612
 C         -2.1044859380       -0.6481286341        0.2557487795
 N         -2.9768923035       -0.0327581602        1.1687299875
 S         -3.7450649700        1.3889640425        0.7182796705
 O         -2.9664159876        2.1490830544       -0.2319251948
 O         -4.0686265983        2.0518157922        1.9631517167
 C         -5.2560426161        0.8265200174       -0.0407087299
 C         -5.6217449861        1.3079318419       -1.2824340696
 C         -6.8085400775        0.8696038072       -1.8492635359
 C         -7.6052856093       -0.0370023127       -1.1672186532
 C         -7.2252465422       -0.5091607608        0.0803355337
 C         -6.0410142127       -0.0737153406        0.6530541013
 H         -5.7118801094       -0.4147445390        1.6202659291
 H         -7.8473430091       -1.2144194425        0.6074757221
 H         -8.5275974602       -0.3774899439       -1.6107455799
 H         -7.1051691775        1.2363540573       -2.8188348888
 H         -4.9672168067        2.0069923506       -1.7786448007
 H         -2.5916273407        0.0502921021        2.0987455155
 H         -3.4402098797       -0.4140588235       -1.3988899717
 H         -1.8995679508       -1.4997143918       -2.9984469761
 H          0.3039830362       -2.3126624667       -2.2365630247
 C          1.3782655064       -2.1940909822        0.2017300849
 H          1.6204011436       -3.0967108783       -0.3749296398
 C          1.5182545843       -2.5068015845        1.6765334943
 C          0.8976578301       -3.7557201698        2.2244246750
 C          2.3873129211       -3.6506810916        2.1007797563
 H          2.9745290362       -3.5442110330        3.0006710773
 H          2.8788331279       -4.2187849344        1.3244457145
 H          0.3758399890       -4.3964906456        1.5299756986
 H          0.4607064735       -3.7260846617        3.2108986945
 H          1.5258463432       -1.6239420948        2.3039068400
 O          1.5896513863        0.5261997648        1.2445216207
