  62
        -98.94492000
 C          1.6788322713        1.4650646695        0.0761306838
 C          1.6034336391        0.3568366751       -0.8034701666
 C          2.8902950305       -0.2455472137       -1.1787066847
 C          4.0397916563        0.2764788917       -0.7152847030
 C          5.4270278834       -0.2172414601       -1.0243194938
 C          5.8861099916       -1.3800717031       -0.1340064299
 C          5.2154189856       -2.7240783081       -0.4215371027
 H          5.2976813803       -2.9505469501       -1.4849880282
 H          5.7805688909       -3.4863606667        0.1184037146
 C          3.7440146178       -2.8042908448        0.0105504016
 H          3.5691301157       -3.7433440722        0.5407569184
 H          3.5237928957       -1.9974442373        0.7138575629
 C          2.7399512153       -2.7428021857       -1.1410083378
 H          2.8578865813       -3.6235751097       -1.7766794841
 H          1.7305416956       -2.7668937755       -0.7195111863
 C          2.8610033844       -1.4881674847       -2.0160073153
 H          1.9804088227       -1.4366079279       -2.6608888598
 H          3.7512612004       -1.5498508912       -2.6417121436
 H          6.9623726234       -1.4972742359       -0.2799413916
 H          5.7198559920       -1.1071429026        0.9106653827
 H          5.4862900954       -0.5138625774       -2.0717247895
 H          6.1008590931        0.6267366287       -0.8621664882
 O          4.0706289308        1.3619317768        0.1026805448
 C          2.8998188853        1.9545877035        0.5451377693
 O          3.0753960745        2.9042852639        1.3354371284
 O          0.5309672599       -0.1072647471       -1.2683044901
 C          0.4214871179        2.1348756477        0.6097308594
 C         -0.2315854854        1.1797099604        1.5804718625
 C          0.3710846348        0.9636218909        2.8178740375
 C         -0.1763371247        0.0740784539        3.7215108003
 C         -1.3250483497       -0.6312612073        3.4032809760
 C         -1.9291288450       -0.4296945369        2.1693239628
 C         -1.3887665243        0.4836560718        1.2732418090
 H         -1.8712540806        0.6360409895        0.3249834978
 N         -3.1049029640       -1.1137275781        1.8144900223
 S         -3.1433978143       -1.9207347155        0.3370209040
 O         -4.2331382615       -2.8653038030        0.4840279351
 O         -1.8567521094       -2.4912438931        0.0173002294
 C         -3.6261269346       -0.6772909064       -0.8400698456
 C         -2.7594952358       -0.2939713146       -1.8444107034
 C         -3.1707587979        0.6830916025       -2.7385671464
 C         -4.4286516856        1.2527444190       -2.6144840393
 C         -5.2866610402        0.8521707350       -1.6009195615
 C         -4.8843625429       -0.1238714931       -0.7039656375
 H         -5.5196626546       -0.4692815648        0.0945278116
 H         -6.2632529576        1.2990700920       -1.5070073757
 H         -4.7396167458        2.0152220131       -3.3115098184
 H         -2.4999345423        0.9983573317       -3.5223327304
 H         -1.7749087970       -0.7339705367       -1.8892195361
 H         -3.4675638839       -1.7124728202        2.5435210608
 H         -1.7482954519       -1.3347486719        4.1048092753
 H          0.2976836925       -0.0799052216        4.6794669820
 H          1.2780672938        1.5026566672        3.0563597200
 H          0.7657749799        3.0090120170        1.1796666713
 C         -0.4939367616        2.6013002160       -0.5018260786
 C         -1.6090548474        3.5519077346       -0.1885725679
 C         -0.4203351131        4.0216850015       -0.9708409077
 H         -0.5409549863        4.2219634974       -2.0247170804
 H          0.2887474624        4.6740372693       -0.4819717774
 H         -2.5494449565        3.4274168670       -0.7036865718
 H         -1.7064029937        3.8853503269        0.8335166624
 H         -0.6743775624        1.8421838369       -1.2518773039
