  62
        -98.94388129
 C         -1.8352451732       -1.1124116818        0.1585446627
 C         -2.2232951883       -0.0743884894       -0.7221874308
 C         -3.6657798551        0.0291939029       -0.9892917794
 C         -4.5074924807       -0.8564563426       -0.4255010140
 C         -6.0013270913       -0.8312094577       -0.5679365543
 C         -6.6509921471       -0.0089445224        0.5539400339
 C         -6.0134962003        1.3649946479        0.7612333674
 H         -4.9901544033        1.2338191109        1.1204081719
 H         -6.5711503753        1.8659037261        1.5555219144
 C         -5.9982265279        2.2532865123       -0.4905857185
 H         -6.3118525091        3.2607391328       -0.2090530378
 H         -6.7202040858        1.8808894500       -1.2182313506
 C         -4.6282573596        2.3846576070       -1.1590795830
 H         -3.8804173122        2.6683741193       -0.4138691728
 H         -4.6830783803        3.1951646842       -1.8908990649
 C         -4.1224214448        1.1375909243       -1.8954045039
 H         -3.2427205184        1.4297324862       -2.4768168938
 H         -4.8887713939        0.7818381535       -2.5872018854
 H         -6.5663091088       -0.5697681339        1.4875827744
 H         -7.7113005134        0.1109706842        0.3245324546
 H         -6.3693398098       -1.8571254827       -0.5142286164
 H         -6.2617638292       -0.4122753604       -1.5378685675
 O         -4.0920692128       -1.8586315120        0.3905511987
 C         -2.7528788716       -2.0035417033        0.7143169688
 O         -2.5098862306       -2.9456524687        1.4951739620
 O         -1.4113394208        0.7271720891       -1.2548616403
 C         -0.3709974810       -1.2937487218        0.5146135387
 C          0.2033816413       -0.0062806076        1.0526983328
 C         -0.5170223544        0.7106186799        2.0047440560
 C         -0.0291819862        1.8986621777        2.5120560349
 C          1.1915387059        2.3935397600        2.0884695160
 C          1.9302967291        1.6751013916        1.1559422743
 C          1.4394602518        0.4774567395        0.6524630644
 H          2.0193578110       -0.0553703244       -0.0818936010
 N          3.1935360255        2.1278348851        0.7627365315
 S          3.9479649835        1.6645565872       -0.6477047510
 O          5.0621066803        2.5826120797       -0.7636134353
 O          3.0501681922        1.6231034624       -1.7774836950
 C          4.5804961879        0.0353709386       -0.3016726240
 C          5.0024181228       -0.2743032642        0.9760388844
 C          5.5316337692       -1.5316864905        1.2196055010
 C          5.6390728840       -2.4508575696        0.1873062599
 C          5.2176720520       -2.1226518609       -1.0917325225
 C          4.6820902617       -0.8684934798       -1.3405568116
 H          4.3301266471       -0.5758800581       -2.3174526107
 H          5.3022010676       -2.8380240408       -1.8944181601
 H          6.0519218506       -3.4285218462        0.3793910146
 H          5.8589295514       -1.7906388655        2.2136939578
 H          4.9049503277        0.4609370649        1.7570250176
 H          3.4476726172        3.0558849094        1.0638427593
 H          1.5690645085        3.3276358299        2.4752588670
 H         -0.6060448224        2.4495821909        3.2398580301
 H         -1.4750126588        0.3282333195        2.3310969763
 H         -0.3447667812       -2.0442028857        1.3187638552
 C          0.3876676112       -1.8374083190       -0.6788096561
 C          1.5694340338       -2.7364758996       -0.4774117932
 C          0.2806470714       -3.2975927953       -0.9965652742
 H          0.2254807239       -3.5971135605       -2.0323769779
 H         -0.3212305244       -3.9026665268       -0.3340643918
 H          2.4031799358       -2.6501629782       -1.1576180736
 H          1.8524042584       -2.9708471688        0.5375280331
 H          0.4077867161       -1.1420758537       -1.5113958412
