  62
        -98.93742289
 C          2.2976233397        1.3562579809       -0.0851223806
 C          3.1330670197        0.7103337010        0.8641181694
 C          3.8995113297       -0.4464090490        0.3869275594
 C          3.7921998796       -0.8264303791       -0.8984464106
 C          4.5284562696       -1.9554330592       -1.5692232205
 C          4.1895053396       -3.3736893491       -1.0706784704
 C          5.1294708597       -3.9011899490        0.0205703796
 H          5.3294121497       -4.9574100891       -0.1707614904
 H          6.0851962897       -3.3817878190       -0.0588931905
 C          4.6099735998       -3.7993150789        1.4578237196
 H          5.4533444599       -3.9707625489        2.1301731495
 H          3.8833389699       -4.5963882389        1.6312181197
 C          3.9370131698       -2.4791877589        1.8351983995
 H          2.9344694398       -2.4400732090        1.4009099896
 H          3.8023960199       -2.4632014888        2.9185412496
 C          4.7023614998       -1.2159422489        1.3948530494
 H          4.8488057698       -0.5526859189        2.2495013293
 H          5.6782919698       -1.4780864590        0.9894533993
 H          3.1538069697       -3.4012858891       -0.7312720203
 H          4.2625847996       -4.0377524492       -1.9335754804
 H          5.6024765696       -1.7830778991       -1.4696175206
 H          4.2742299195       -1.8798122193       -2.6284664405
 O          2.9938470095       -0.1715487292       -1.7829420906
 C          2.2109573896        0.9083224608       -1.4028798206
 O          1.5150874295        1.3618650307       -2.3352326306
 O          3.2399324798        1.0937910111        2.0590451593
 C          1.4651203697        2.5230341409        0.4247453194
 C          0.0658028197        2.0385510109        0.7200919495
 C         -0.3729535602        1.8826122410        2.0299345495
 C         -1.6324035802        1.3743650810        2.2960541697
 C         -2.4745554202        1.0018435710        1.2634892798
 C         -2.0403927203        1.1442961809       -0.0476521503
 C         -0.7874236304        1.6741998209       -0.3123126104
 H         -0.4504382404        1.7600891408       -1.3347666205
 N         -2.8788000604        0.7270466808       -1.1056317502
 S         -3.1978654104       -0.9273211292       -1.1366598000
 O         -2.1220950503       -1.6844074892       -0.5353738601
 O         -3.5130393905       -1.2375513593       -2.5142397400
 C         -4.6757735903       -1.0820626992       -0.1551632599
 C         -4.6618105502       -1.8418419491        0.9980061201
 C         -5.8238270502       -1.9430867590        1.7473565802
 C         -6.9722619202       -1.2864240491        1.3321618503
 C         -6.9703693503       -0.5297058092        0.1696240002
 C         -5.8125983704       -0.4252739192       -0.5845899899
 H         -5.7674317904        0.1473654907       -1.4958153099
 H         -7.8655519103       -0.0213126792       -0.1502490198
 H         -7.8743117302       -1.3654830491        1.9181241403
 H         -5.8270168601       -2.5314602490        2.6508238203
 H         -3.7428984802       -2.3286891791        1.2833962301
 H         -2.5207975905        1.0062697007       -2.0094937202
 H         -3.4529700602        0.5960164210        1.4629753799
 H         -1.9592813201        1.2604513311        3.3183041697
 H          0.2920917999        2.1421703011        2.8407785495
 H          1.9290375197        2.8098022510        1.3778649893
 C          1.4721717896        3.7272759809       -0.4939821207
 C          1.0988725896        5.0662467209        0.0656811192
 C          2.5211654196        4.7809458909       -0.3101253209
 H          2.9309136495        5.2562638508       -1.1886504810
 H          3.2402435197        4.6370975810        0.4830473391
 H          0.5286395296        5.7416022409       -0.5533005508
 H          0.8535448497        5.1168603910        1.1156060592
 H          1.1718505895        3.5024764408       -1.5088740407
