  62
        -98.94008897
 C         -1.3070919988       -1.4827634059        0.4526139766
 C         -1.7253520176       -0.6914341605       -0.6415012931
 C         -2.5198043265        0.5152194734       -0.3262952682
 C         -2.7313654350        0.8370988845        0.9631201937
 C         -3.4967200008        2.0034900076        1.5342466102
 C         -5.0178591190        1.8347899714        1.4246485000
 C         -5.5090995467        1.4133370780        0.0433413059
 H         -5.0829770066        0.4402165922       -0.2050648882
 H         -6.5933429488        1.2871652368        0.1020338124
 C         -5.2119054518        2.4039856959       -1.0809052492
 H         -5.7577523124        2.0601312429       -1.9630001833
 H         -5.6082999478        3.3845997699       -0.8093517686
 C         -3.7376827817        2.5560827011       -1.4718018424
 H         -3.2165025571        3.2391220872       -0.8057444117
 H         -3.7122917249        3.0128274694       -2.4650656560
 C         -2.9759938183        1.2388303351       -1.5693903864
 H         -2.0661175599        1.3913251275       -2.1597794885
 H         -3.5703970294        0.5211822604       -2.1464662251
 H         -5.4877560513        2.7779194823        1.7099941877
 H         -5.3306798686        1.0721679348        2.1422566291
 H         -3.2290215272        2.0621542127        2.5919825529
 H         -3.1862742380        2.9313405158        1.0623251010
 O         -2.2471152021        0.0753645110        1.9884489638
 C         -1.5393044394       -1.0875091627        1.7695008068
 O         -1.1624929311       -1.6667566079        2.8106102825
 O         -1.4635569051       -0.9666695158       -1.8400105265
 C         -0.4805654616       -2.7415381526        0.2356638942
 C          0.8836986764       -2.2985415756       -0.2340928125
 C          1.3637258604       -2.4826776501       -1.5228383595
 C          2.5911778496       -1.9570628633       -1.8924112488
 C          3.3621152772       -1.2459718982       -0.9912247681
 C          2.8935259454       -1.0684289994        0.3048587970
 C          1.6659626172       -1.5923663107        0.6728332781
 H          1.2934038576       -1.4418163235        1.6786469508
 N          3.6629663063       -0.3327207748        1.2300541427
 S          4.0920896040        1.2120468133        0.7468262428
 O          5.2369872100        1.1373897604       -0.1253178181
 O          4.2778632502        1.9614347247        1.9693690690
 C          2.6849714363        1.8350619064       -0.1572116465
 C          1.4938312062        1.9993052748        0.5217767886
 C          0.3915192515        2.4814809528       -0.1636816467
 C          0.4974893591        2.7873219627       -1.5116231388
 C          1.6967102742        2.6066549021       -2.1820540180
 C          2.8027632195        2.1241271306       -1.5009705370
 H          3.7549105095        1.9718010655       -1.9823068957
 H          1.7723718391        2.8399178988       -3.2318056967
 H         -0.3614193083        3.1706989178       -2.0394512238
 H         -0.5461051775        2.6071788221        0.3542191054
 H          1.4412240657        1.7605369638        1.5728280569
 H          3.2522034459       -0.3062878541        2.1526414622
 H          4.3137863863       -0.8211834191       -1.2668650620
 H          2.9496395422       -2.0989690112       -2.9003785454
 H          0.7691696070       -3.0190993786       -2.2430640202
 H         -0.3645750356       -3.2009758288        1.2272023774
 C         -1.1678775512       -3.7275242224       -0.6818176328
 C         -0.7269903031       -5.1594578934       -0.6835152520
 C         -2.0495637280       -4.7829872214       -0.0880248368
 H         -2.9507103981       -5.0581280186       -0.6151889612
 H         -2.1511876770       -4.8038468110        0.9875863958
 H         -0.7199704730       -5.6968651752       -1.6193773825
 H          0.0709160085       -5.4366163357       -0.0110933503
 H         -1.4818852490       -3.2887825250       -1.6202951057
