  62
        -98.94442683
 C          1.9338090982        1.0797111461       -0.2172475775
 C          2.4351197345       -0.0782652647       -0.8586133316
 C          3.8918581823       -0.2659848712       -0.7875796569
 C          4.6471588863        0.6550700595       -0.1616882575
 C          6.1322074136        0.5585862688        0.0322891267
 C          6.4743879478       -0.1359690320        1.3579839772
 C          5.7229208818       -1.4486363538        1.5800025231
 H          6.0657735395       -1.8628152172        2.5306389678
 H          4.6567370190       -1.2364095514        1.6875409248
 C          5.9202339839       -2.4889602836        0.4686321017
 H          6.8027379854       -2.2385409767       -0.1212342832
 H          6.1034034106       -3.4623187267        0.9285913451
 C          4.7190903366       -2.6565679043       -0.4640606136
 H          4.8782713678       -3.5556583264       -1.0654966437
 H          3.8134114366       -2.8154210513        0.1270929941
 C          4.4614262362       -1.4968835646       -1.4344956793
 H          3.7100574105       -1.8294933735       -2.1568787618
 H          5.3786589216       -1.2597599637       -1.9774836842
 H          7.5497135095       -0.3215266870        1.3828345347
 H          6.2274227764        0.5425819111        2.1777261540
 H          6.5439126608        1.5691405878        0.0448711016
 H          6.5673488662        0.0099401855       -0.8006304976
 O          4.1303471063        1.7686465112        0.4179208232
 C          2.7650195850        2.0023634011        0.4174866703
 O          2.4198201288        3.0461078905        1.0073865854
 O          1.7080336630       -0.9135016199       -1.4571080094
 C          0.4407374286        1.3575529936       -0.2168038158
 C         -0.2980480700        0.1827587069        0.3760180257
 C          0.1150166448       -0.3087951278        1.6126512407
 C         -0.5100350283       -1.3980016383        2.1859645858
 C         -1.5724736221       -2.0129520271        1.5460375875
 C         -2.0002710463       -1.5251089089        0.3181930916
 C         -1.3687501364       -0.4284987971       -0.2558818782
 H         -1.7127414017       -0.0854260458       -1.2165892716
 N         -3.0683047785       -2.1371473538       -0.3576781383
 S         -4.2679958674       -1.2029108097       -1.0511655049
 O         -5.3690906938       -2.1189655455       -1.2524318483
 O         -3.7729850392       -0.5355751953       -2.2272046737
 C         -4.6838360536       -0.0166560957        0.2135166218
 C         -5.4480458862       -0.4453159689        1.2816313666
 C         -5.7249845130        0.4430355664        2.3075024531
 C         -5.2280830290        1.7366704676        2.2524225835
 C         -4.4645386967        2.1516894362        1.1726670653
 C         -4.1870699785        1.2682941571        0.1411124575
 H         -3.6006020138        1.5548527169       -0.7160372783
 H         -4.0808413336        3.1586892923        1.1302799573
 H         -5.4390470256        2.4269578749        3.0539161405
 H         -6.3232241646        0.1255408936        3.1462908268
 H         -5.8246868442       -1.4553474365        1.2819048630
 H         -3.4642355417       -2.9319068255        0.1226281536
 H         -2.0569123230       -2.8706169810        1.9874265774
 H         -0.1701300283       -1.7725702826        3.1398129141
 H          0.9464719656        0.1712352981        2.1114142875
 H          0.2943698463        2.2253632487        0.4428992864
 C         -0.0180990850        1.7256406452       -1.6120522857
 C         -1.1606858407        2.6748240230       -1.8060457212
 C          0.2383509941        3.1120802942       -2.1183990183
 H          0.5245026273        3.2389604655       -3.1516971385
 H          0.7208955728        3.8038181546       -1.4429989179
 H         -1.8430255310        2.4997324944       -2.6250599087
 H         -1.6228953849        3.0842036403       -0.9202864736
 H          0.0958830459        0.9117806409       -2.3194777831
