  62
        -98.94134582
 C         -2.4513935703       -1.2579906353        0.0838435356
 C         -2.9899132308       -0.4223486082        1.0974756640
 C         -3.6531682930        0.8051794650        0.6487854658
 C         -3.7239949372        1.0791740707       -0.6659300216
 C         -4.3747392338        2.2846584104       -1.2875362486
 C         -3.4750969221        3.5279573927       -1.3173735491
 C         -3.2627510912        4.2096247056        0.0349615822
 H         -4.2296407085        4.3893267050        0.5062574436
 H         -2.8107096244        5.1829273725       -0.1658982063
 C         -2.3529769209        3.4358085303        0.9996631987
 H         -1.6338082113        4.1234643931        1.4508611278
 H         -1.7705738408        2.6965109190        0.4430382470
 C         -3.0882941306        2.7361545084        2.1432879647
 H         -3.5494250006        3.4839136415        2.7924477713
 H         -2.3523104785        2.1834702076        2.7326499171
 C         -4.1717970116        1.7487553020        1.6913444677
 H         -5.0404886648        2.2889961143        1.3157299019
 H         -4.4741121842        1.1532743084        2.5562500297
 H         -3.9377406937        4.2488877201       -1.9955612429
 H         -2.5056290530        3.2495621480       -1.7387990489
 H         -5.3001304018        2.5159107306       -0.7592032373
 H         -4.6191179617        2.0111428058       -2.3162660887
 O         -3.2088506173        0.2494020911       -1.6096216378
 C         -2.5380456889       -0.9184552760       -1.2660888176
 O         -2.0933933508       -1.5399227388       -2.2516069338
 O         -2.9264933559       -0.7007581144        2.3242499399
 C         -1.7321334915       -2.5124123637        0.5534782659
 C         -0.2637549617       -2.2112982990        0.7096413673
 C          0.3850273314       -2.3629110262        1.9286778970
 C          1.7194951100       -2.0187373256        2.0642937263
 C          2.4301259509       -1.5107624345        0.9910774455
 C          1.7884349593       -1.3547611941       -0.2305002864
 C          0.4574604069       -1.7109031415       -0.3668076649
 H         -0.0362886374       -1.5792275629       -1.3190477925
 N          2.4976508517       -0.7959956571       -1.3236195913
 S          2.7015111692        0.8733003133       -1.1799846120
 O          1.5845676734        1.4821861676       -0.4908422461
 O          2.9674447510        1.3526961181       -2.5189190495
 C          4.1790143923        1.0110696712       -0.1982124020
 C          5.3632332120        0.5514155298       -0.7413152009
 C          6.5213563323        0.6327240813        0.0150400657
 C          6.4753469739        1.1699890549        1.2932339742
 C          5.2788031321        1.6291125088        1.8224834062
 C          4.1160152233        1.5497720098        1.0715225828
 H          3.1612152015        1.8870356509        1.4422512877
 H          5.2449175042        2.0459718875        2.8162031465
 H          7.3776046750        1.2311876396        1.8809958859
 H          7.4536779830        0.2769746080       -0.3928333198
 H          5.3516931228        0.1458742327       -1.7392130263
 H          2.0353600737       -0.9785929470       -2.2052356335
 H          3.4674187787       -1.2353409043        1.0905542472
 H          2.2095069823       -2.1404767820        3.0180036067
 H         -0.1703781862       -2.7329679690        2.7779843391
 H         -2.1402688829       -2.7058344266        1.5578409921
 C         -2.0219403386       -3.7363689424       -0.3038498328
 C         -0.9781712249       -4.4677964762       -1.0895051684
 C         -1.5495704375       -5.0869620627        0.1481387047
 H         -2.2162146727       -5.9299581030        0.0493629426
 H         -0.9184448728       -5.1202460692        1.0234852277
 H         -1.2661414485       -4.8625523079       -2.0520564876
 H          0.0380960302       -4.1077667731       -1.0556495558
 H         -3.0092144345       -3.6918332643       -0.7518840096
