  62
        -98.93813452
 C          1.9908455248        1.3919839851        0.3090834190
 C          2.6341605926        0.7220556825       -0.7584106908
 C          3.7846092110       -0.1235564904       -0.3944830629
 C          4.1587474589       -0.2154026546        0.8930661042
 C          5.3175828189       -0.9839659082        1.4766562608
 C          5.5409106636       -2.4164220143        0.9694842001
 C          4.2675914072       -3.1682422934        0.5543081340
 H          4.2571633517       -4.1444298879        1.0430394756
 H          3.3827345003       -2.6264841956        0.8934752127
 C          4.1757855755       -3.4002380671       -0.9561288108
 H          5.1574528828       -3.7094799687       -1.3216915175
 H          3.4832197046       -4.2246532193       -1.1430900269
 C          3.6892586608       -2.2071393966       -1.7784969263
 H          2.6245296958       -2.0375523776       -1.5935574090
 H          3.7904566053       -2.4647327615       -2.8355290542
 C          4.4241253789       -0.8812830517       -1.5217245266
 H          5.4847714217       -1.0457300186       -1.3477331238
 H          4.3074191670       -0.2565591713       -2.4113282110
 H          6.2311975948       -2.4010186082        0.1271910855
 H          6.0384367276       -2.9619255809        1.7730500478
 H          6.2288859542       -0.4013968919        1.3145815619
 H          5.1337406014       -1.0011606726        2.5535422754
 O          3.5040579852        0.4443938867        1.8908074463
 C          2.4046115020        1.2452370713        1.6309739430
 O          1.8866528300        1.7554452304        2.6460147641
 H         -0.0747360834       -0.1222342099        0.7945013679
 C         -0.6195544377        0.2209280902       -0.0771113641
 C         -0.3041443887        1.4586190826       -0.6253950880
 C         -1.0243522241        1.8944667034       -1.7293340792
 C         -2.0055947004        1.0927046605       -2.2879965973
 C         -2.2967482084       -0.1495354529       -1.7566423329
 C         -1.5979344601       -0.5853474659       -0.6372171041
 N         -1.8973436861       -1.8379355723       -0.0759170917
 S         -3.5077179629       -2.2580967121        0.0974329739
 O         -3.5410598194       -3.1716775925        1.2180990223
 O         -4.0109055723       -2.7764884095       -1.1501791877
 C         -4.3518735763       -0.7388297058        0.5013680404
 C         -3.9550986288       -0.0542782629        1.6331238676
 C         -4.5793234711        1.1420735730        1.9461286657
 C         -5.5855952034        1.6306674842        1.1266118320
 C         -5.9767625212        0.9286275598       -0.0026291552
 C         -5.3537711877       -0.2672852744       -0.3220744075
 H         -5.6235358579       -0.8435783170       -1.1920405126
 H         -6.7609076689        1.3099428422       -0.6365030248
 H         -6.0669896937        2.5640625039        1.3720437271
 H         -4.2751898011        1.6888953564        2.8243556607
 H         -3.1723040782       -0.4616012098        2.2533577652
 H         -1.3677436425       -2.0556179108        0.7547703693
 H         -3.0419379832       -0.7937955582       -2.1941769529
 H         -2.5477876970        1.4385554153       -3.1545463990
 H         -0.8100434703        2.8577609113       -2.1613761958
 C          0.7850855866        2.2714902457        0.0328615954
 H          0.4175552685        2.6002294594        1.0161549637
 C          1.1982096620        3.4906366385       -0.7649600936
 C          0.4506557415        4.7805592941       -0.6156076909
 C          1.8292544903        4.6429786843       -0.0448480705
 H          2.6431991325        5.1669309119       -0.5230374005
 H          1.9364761760        4.5581133618        1.0270827821
 H          0.3196100670        5.4047070931       -1.4866214733
 H         -0.3811044546        4.8002759275        0.0720346853
 H          1.5933193210        3.2338862412       -1.7409568772
 O          2.2731037053        0.8261829318       -1.9585574169
