  62
        -98.93607146
 C         -2.1425469251       -0.9282914580        0.0906439375
 C         -2.6697217899       -0.0243271486        1.0405727286
 C         -3.0165926006        1.3184732381        0.5465003385
 C         -2.7884372891        1.6241094003       -0.7425587444
 C         -3.0081774498        2.9381823318       -1.4502468668
 C         -4.2954302109        3.7110966922       -1.1339395810
 C         -5.5209277594        2.8338967350       -0.8387729589
 H         -6.3521497992        3.1640271423       -1.4643624979
 H         -5.3081715145        1.7959554186       -1.1003456620
 C         -5.9721425341        2.9104179742        0.6216471951
 H         -5.9357778235        3.9528853459        0.9450426145
 H         -7.0128219089        2.5839909638        0.6850820566
 C         -5.1693685583        2.0546789379        1.6004603290
 H         -5.3767476900        0.9959603736        1.4231547686
 H         -5.5156481496        2.2843782225        2.6109062376
 C         -3.6444583936        2.2443773878        1.5489348667
 H         -3.3808675103        3.2819559326        1.3588313272
 H         -3.2368554826        1.9544966096        2.5214097410
 H         -4.1226137830        4.3775004768       -0.2901409496
 H         -4.5001269433        4.3456037853       -1.9979102754
 H         -2.1433069644        3.5774652653       -1.2476382650
 H         -2.9798141697        2.6933653152       -2.5149439868
 O         -2.2577514360        0.7259810312       -1.6214377760
 C         -1.9158584560       -0.5594924155       -1.2346513548
 O         -1.4348064468       -1.2606205900       -2.1452474248
 H          0.1839259624       -0.5979337086        1.1726964563
 C          0.5995275370       -1.4748281640        0.6891299278
 C         -0.2527309330       -2.4997108882        0.2963129898
 C          0.3003976834       -3.6142949153       -0.3193067729
 C          1.6627066326       -3.6811156453       -0.5598406820
 C          2.5012511806       -2.6451507354       -0.1920889256
 C          1.9596627050       -1.5352886468        0.4404107156
 N          2.8104165701       -0.4587735230        0.8019616272
 S          3.2427514100        0.5485802810       -0.4901487190
 O          2.3291483826        1.6732986057       -0.5428713932
 O          3.3719564353       -0.2440072714       -1.6850909874
 C          4.8500123515        1.1075714996        0.0408515986
 C          5.9275715370        0.2621127456       -0.1382703065
 C          7.1770135328        0.6650690858        0.3043501451
 C          7.3267133439        1.8996458553        0.9186642335
 C          6.2356865010        2.7374456438        1.0913852149
 C          4.9829380354        2.3390700494        0.6511965631
 H          4.1086977601        2.9609788387        0.7572889690
 H          6.3547329789        3.6977048915        1.5669545335
 H          8.3000555766        2.2117192634        1.2629229451
 H          8.0279131438        0.0168991253        0.1698427223
 H          5.7643284723       -0.6831854644       -0.6286794494
 H          2.3733691601        0.1327355704        1.4978359370
 H          3.5576454510       -2.6748463452       -0.4011179717
 H          2.0739178119       -4.5497628426       -1.0512393669
 H         -0.3382298624       -4.4255674161       -0.6284636805
 C         -1.7312106366       -2.3192147845        0.5397365493
 H         -1.9101297658       -2.3431151072        1.6252366981
 C         -2.5912191304       -3.3744741073       -0.1218300690
 C         -2.8421980365       -4.6834735344        0.5637680535
 C         -3.9421744806       -3.6721744823        0.4541515634
 H         -4.7597064973       -3.8667553634       -0.2236004783
 H         -4.2314748981       -3.1303159248        1.3428349189
 H         -2.3889821066       -4.8353498193        1.5315244097
 H         -2.9075446411       -5.5763742086       -0.0393101498
 H         -2.4969568235       -3.3679060200       -1.2020916000
 O         -2.8248134197       -0.3188058493        2.2570460989
