  62
        -98.94440262
 C         -2.4460163429       -0.9167177881        0.0397366257
 C         -2.7400168163       -0.0084475459        1.0915330389
 C         -3.0847708645        1.3624618094        0.7012136585
 C         -3.1253031149        1.6799886611       -0.6049180552
 C         -3.4076174893        3.0497381256       -1.1487196539
 C         -2.1092091130        3.8407328372       -1.3599670751
 C         -1.1682483121        3.8256512413       -0.1547035344
 H         -0.7794310512        2.8127253103       -0.0180261624
 H         -0.3112354079        4.4541590398       -0.4086507924
 C         -1.7996613058        4.3249501412        1.1529048233
 H         -1.0907782483        4.9931233202        1.6462955894
 H         -2.6944407145        4.9079139678        0.9308285089
 C         -2.1468408755        3.2249833541        2.1579937335
 H         -2.3593432503        3.6988320200        3.1200271568
 H         -1.2808821587        2.5722701289        2.2957718477
 C         -3.3550806359        2.3504162358        1.8001658691
 H         -4.2090786332        2.9832212488        1.5511529514
 H         -3.6102768764        1.7560699485        2.6822323498
 H         -2.3702078549        4.8715202524       -1.6083294280
 H         -1.5730197772        3.4102298904       -2.2094800602
 H         -3.9161995933        2.9416089522       -2.1084079316
 H         -4.0609746766        3.5809998874       -0.4592659100
 O         -2.8693967333        0.7810319558       -1.5862813541
 C         -2.4785153421       -0.5179491787       -1.2960919304
 O         -2.2099070234       -1.1872768432       -2.3167691633
 O         -2.7149949383       -0.3379003840        2.3075439496
 C         -1.9983628485       -2.3066631468        0.4670204779
 C         -0.4926396571       -2.3097202936        0.5833792246
 C          0.1469964502       -2.5833589776        1.7863016577
 C          1.5244381114       -2.4898643631        1.8912311633
 C          2.2880663194       -2.0938446441        0.8067825031
 C          1.6549942867       -1.8198011451       -0.3974442371
 C          0.2823316065       -1.9538749936       -0.5113021464
 H         -0.1960048064       -1.7283443838       -1.4534499906
 N          2.4187751002       -1.3092650363       -1.4837141075
 S          2.5567524183        0.3722482267       -1.3526111526
 O          1.3446175939        0.9655103950       -0.8309550986
 O          2.9899825632        0.8378996382       -2.6523837542
 C          3.8782047973        0.5495732930       -0.1752943327
 C          3.5892052432        0.9255130508        1.1214597431
 C          4.6254453101        1.0183760305        2.0375806495
 C          5.9237178179        0.7336596162        1.6422284173
 C          6.1972935859        0.3593058377        0.3348288582
 C          5.1659152959        0.2637747332       -0.5856396497
 H          5.3297219002       -0.0187787318       -1.6121678025
 H          7.2083046620        0.1400520638        0.0314989816
 H          6.7271572004        0.8047291127        2.3582746414
 H          4.4138272154        1.3085730339        3.0541176931
 H          2.5635477117        1.1325842638        1.3832548793
 H          1.9837105236       -1.5080786721       -2.3759470146
 H          3.3582373478       -1.9911952231        0.8839535696
 H          2.0061881706       -2.7063529869        2.8321995349
 H         -0.4468162601       -2.8444815467        2.6498572221
 H         -2.4133714448       -2.4502743402        1.4738543219
 C         -2.4880906155       -3.4317347054       -0.4202707142
 C         -2.5459367078       -4.8207624326        0.1391680667
 C         -3.8132188573       -4.0686929216       -0.1330696448
 H         -4.4281048375       -4.3711993249       -0.9671928729
 H         -4.3754682220       -3.6932629919        0.7094366336
 H         -2.2885099951       -5.6456530866       -0.5070282459
 H         -2.2507019986       -4.9582020440        1.1682065365
 H         -2.2082429365       -3.3165402614       -1.4591152780
