  62
        -98.94041483
 C          2.0303019494        1.4429605384        0.4337009747
 C          2.3482842520        0.8399554838       -0.8080396652
 C          3.1879210048       -0.3679083150       -0.7392985574
 C          3.5976088506       -0.8280722638        0.4559470052
 C          4.3909071204       -2.0840257203        0.6692546245
 C          3.4665902221       -3.2901149284        0.8892521953
 C          2.3544698910       -3.4104364966       -0.1529012863
 H          1.7766268765       -4.3062875124        0.0849961650
 H          1.6824776159       -2.5543793889       -0.0568057473
 C          2.8509527434       -3.4946068511       -1.6029947417
 H          2.3052060470       -4.2895574817       -2.1158231424
 H          3.9074009801       -3.7646787046       -1.6193250154
 C          2.6439407789       -2.2157837171       -2.4166769005
 H          1.6013630229       -1.8960240102       -2.3370473484
 H          2.8320675500       -2.4476045205       -3.4685175939
 C          3.5441045269       -1.0317297998       -2.0404112932
 H          4.5879454228       -1.3517235112       -2.0364478718
 H          3.4228971303       -0.2657200205       -2.8121665869
 H          4.0734653167       -4.1971321310        0.8828077833
 H          3.0062538166       -3.1964115692        1.8754915370
 H          5.0312839954       -2.2556559111       -0.1937074084
 H          5.0163407703       -1.9499921690        1.5532966447
 O          3.2819573531       -0.2185248799        1.6260390204
 C          2.4951442596        0.9196296815        1.6450664059
 O          2.2844581572        1.3740894125        2.7862797186
 H         -0.1750488365        1.3120171914       -1.3228703092
 C         -0.8188677958        1.5940301570       -0.5027523674
 C         -0.2903442520        2.3282122720        0.5508264130
 C         -1.1285074173        2.6823746835        1.6008695744
 C         -2.4650092837        2.3200604152        1.5880648078
 C         -2.9904575731        1.5963476759        0.5327697066
 C         -2.1567853573        1.2290166218       -0.5164886564
 N         -2.6709039544        0.4799160817       -1.5885212243
 S         -3.6600990165       -0.8184914068       -1.2290756799
 O         -3.4832151810       -1.7491819377       -2.3210487802
 O         -5.0071844577       -0.3507973486       -1.0151222673
 C         -3.0227755763       -1.5075335139        0.2896785269
 C         -3.8459131374       -1.6032218406        1.3930930066
 C         -3.3355879343       -2.1310592953        2.5682220938
 C         -2.0152527660       -2.5490538599        2.6198235228
 C         -1.2008915540       -2.4485724838        1.5021238496
 C         -1.7064907051       -1.9236526552        0.3242286988
 H         -1.0956890309       -1.8368313230       -0.5610534802
 H         -0.1731185793       -2.7727244450        1.5461906198
 H         -1.6144376156       -2.9557240449        3.5347948001
 H         -3.9662493471       -2.2118169463        3.4387657649
 H         -4.8652219147       -1.2630063573        1.3089813796
 H         -1.9779914094        0.2379377614       -2.2817030495
 H         -4.0303811361        1.3139211925        0.5024147841
 H         -3.1052974022        2.6039003431        2.4090014712
 H         -0.7230596907        3.2342092138        2.4361177216
 C          1.1718394912        2.6935384856        0.5581213897
 H          1.4071040828        3.1011654146        1.5531681527
 C          1.5344426273        3.7618270954       -0.4665389296
 C          0.6010750293        4.2538083452       -1.5284192909
 C          0.9274452250        5.1296147269       -0.3588004330
 H          1.5583612448        5.9919882251       -0.5119403000
 H          0.1584175116        5.2708087120        0.3859136672
 H         -0.3887184646        3.8287176935       -1.5844485703
 H          1.0248054796        4.4922033602       -2.4923145450
 H          2.5840307035        3.7200643817       -0.7391744593
 O          1.9584732425        1.2635105569       -1.9279166610
