  62
        -98.94508147
 C         -2.5551192361       -0.0821856832        0.4041594844
 C         -2.3120043616        0.5667870990       -0.8302493352
 C         -2.0664728845        2.0134567229       -0.7560478960
 C         -2.0930944785        2.6269682303        0.4406865949
 C         -1.8756439892        4.0965132120        0.6582071852
 C         -0.4081725451        4.4269278109        0.9575894071
 C          0.5862314909        3.8197381209       -0.0321834365
 H          1.5774101632        4.1887457838        0.2427317497
 H          0.6098106375        2.7348899737        0.0943502291
 C          0.3110457616        4.1521050450       -1.5051000307
 H          1.2599105821        4.3985602202       -1.9860476964
 H         -0.3279595340        5.0335621149       -1.5759727061
 C         -0.3082301444        3.0049506091       -2.3065662235
 H         -0.2000769761        3.2335730316       -3.3704225223
 H          0.2465740421        2.0844093636       -2.1055613381
 C         -1.7957221552        2.7346770678       -2.0457381780
 H         -2.3563213678        3.6709983475       -2.0930525124
 H         -2.1606373615        2.0738110487       -2.8375560772
 H         -0.1644593168        4.0533104150        1.9551576511
 H         -0.2991154049        5.5137076253        0.9651373214
 H         -2.2050412227        4.6363298894       -0.2278258416
 H         -2.4864098321        4.4064754274        1.5085449973
 O         -2.3214942089        1.9678881501        1.6071430414
 C         -2.5311132578        0.5985648997        1.6191731712
 O         -2.6951594957        0.1124286268        2.7592059979
 H         -0.2143846812       -0.9269363798        0.5578129740
 C         -0.3595375987       -1.8211476787       -0.0308957333
 C         -1.6447885838       -2.3148086186       -0.2118058866
 C         -1.8088118777       -3.4795834487       -0.9506106785
 C         -0.7103684668       -4.1176223033       -1.5015496249
 C          0.5640020600       -3.6080749315       -1.3394037994
 C          0.7380544984       -2.4382481901       -0.6056200220
 N          2.0128627766       -1.8626432668       -0.4802866453
 S          2.3046792393       -0.6095878609        0.5979255673
 O          2.0511053139       -1.0360057128        1.9585920149
 O          1.6043149391        0.5659819711        0.1494807744
 C          4.0573124453       -0.4032264156        0.3474977876
 C          4.4922630893        0.4185291367       -0.6746488269
 C          5.8543388441        0.5562479449       -0.8904337491
 C          6.7538576611       -0.1275772162       -0.0861288894
 C          6.3028381612       -0.9469960473        0.9378059054
 C          4.9419079469       -1.0887952134        1.1586348125
 H          4.5453479389       -1.7041934056        1.9502219473
 H          7.0043891806       -1.4740645969        1.5640965307
 H          7.8132764032       -0.0184693609       -0.2561578277
 H          6.2081900390        1.1956921648       -1.6829188392
 H          3.7552260939        0.9353131023       -1.2673012405
 H          2.7742364306       -2.5228354341       -0.5396089941
 H          1.4166330175       -4.0989112318       -1.7823185410
 H         -0.8507663711       -5.0237537179       -2.0712055233
 H         -2.7962538953       -3.8863654857       -1.0963873658
 C         -2.7960822867       -1.5796894839        0.4330496362
 H         -2.8273317102       -1.8630532856        1.4966974756
 C         -4.1354343721       -1.9047133677       -0.1988321373
 C         -4.9604649988       -3.0480274542        0.3087128953
 C         -5.3850341581       -1.6377078494        0.5834721820
 H         -6.2453700115       -1.2437319613        0.0638224665
 H         -5.2648913256       -1.2506958957        1.5853408502
 H         -4.5651875325       -3.6243641538        1.1316933811
 H         -5.5352163539       -3.6239133324       -0.4009502797
 H         -4.1530274873       -1.6887841522       -1.2609875873
 O         -2.3158819570       -0.0293536886       -1.9395042839
