  62
        -98.94175429
 C          2.1884547608        1.2672384285        0.3043621280
 C          1.7950607968        0.3245018511       -0.6777621356
 C          2.6114150699       -0.9000826303       -0.7508439540
 C          3.6406033723       -1.0656817049        0.0986981947
 C          4.5344340548       -2.2706056597        0.1451316100
 C          4.0053726898       -3.3234306883        1.1286173629
 C          2.5242052345       -3.6515718941        0.9407602813
 H          2.2673371181       -4.4279504372        1.6648953786
 H          1.9294844358       -2.7702363559        1.1935996416
 C          2.1539975838       -4.1254766055       -0.4717063349
 H          1.4957630737       -4.9928275148       -0.3873552646
 H          3.0512042380       -4.4499261752       -0.9999452436
 C          1.4135809994       -3.0860670909       -1.3153282181
 H          0.5671762253       -2.6960169140       -0.7447750096
 H          1.0089563833       -3.5932196154       -2.1952292631
 C          2.2544324289       -1.9030147830       -1.8124267963
 H          3.1540847866       -2.2757481213       -2.3064075465
 H          1.6603813655       -1.3559067887       -2.5504053176
 H          4.5983051813       -4.2325999863        1.0140746692
 H          4.1482321349       -2.9514127417        2.1459853724
 H          4.6119522417       -2.6974705625       -0.8529768117
 H          5.5254222924       -1.9491763464        0.4704704263
 O          3.9595473322       -0.1585921929        1.0574770852
 C          3.2376798467        1.0169044326        1.1923309749
 O          3.6164812441        1.7437929737        2.1326977591
 O          0.8233966193        0.4823066270       -1.4583069445
 C          1.4605300880        2.5886339827        0.4802380850
 C         -0.0359002305        2.3916296243        0.4278981412
 C         -0.8870952773        3.1555884566       -0.3597935340
 C         -2.2548949829        2.9434113742       -0.3273051319
 C         -2.8031002001        1.9603282273        0.4743185225
 C         -1.9579027206        1.1721821191        1.2461251672
 C         -0.5916487492        1.4034640305        1.2319946323
 H          0.0620196943        0.7936970791        1.8448620564
 N         -2.4987404756        0.1406483468        2.0302288354
 S         -3.7442825278       -0.7764558605        1.3915577488
 O         -5.0022139591       -0.1173420089        1.6459784458
 O         -3.5928585347       -2.0830533894        1.9953890730
 C         -3.4673818262       -0.8661385735       -0.3692605135
 C         -4.5064619300       -0.5785739214       -1.2313784199
 C         -4.2830083476       -0.6481401969       -2.5969251638
 C         -3.0287098362       -0.9955979340       -3.0740914465
 C         -1.9961959584       -1.2848828877       -2.1957223161
 C         -2.2171781041       -1.2247439470       -0.8303137393
 H         -1.4259060042       -1.4361757581       -0.1284083154
 H         -1.0136628738       -1.5344990358       -2.5609198243
 H         -2.8506978118       -1.0387833943       -4.1369659880
 H         -5.0840965718       -0.4245844664       -3.2830108040
 H         -5.4612824182       -0.2991778481       -0.8159955192
 H         -1.8103814077       -0.4399095543        2.4853277441
 H         -3.8666691267        1.7888042363        0.5160469348
 H         -2.9036704024        3.5503162315       -0.9399393492
 H         -0.4819348242        3.9106379390       -1.0122878577
 H          1.7117669873        2.9148828569        1.5038482449
 C          1.9526976456        3.6862419548       -0.4538706147
 C          3.3155435361        3.6301521884       -1.0755707248
 C          2.0958682614        3.4657337566       -1.9289328363
 H          1.8277478062        4.2704127191       -2.5977371195
 H          1.8609700933        2.4839915153       -2.3078297465
 H          3.8794040058        4.5480885260       -1.1500447006
 H          3.9261690699        2.7611281778       -0.8768548169
 H          1.6178461224        4.6688323624       -0.1363822543
