  62
        -98.94508406
 C         -2.5633384173        0.0151225906       -0.3552406200
 C         -2.2006016831       -0.5902094074        0.8723681498
 C         -1.9053657656       -2.0286671505        0.8144611783
 C         -2.0092521508       -2.6769682754       -0.3594403108
 C         -1.7656212702       -4.1454082383       -0.5568908754
 C         -0.3200248674       -4.4421279000       -0.9738228826
 C          0.7340207538       -3.7787093314       -0.0875423348
 H          1.7110207301       -4.1227925223       -0.4359087787
 H          0.7091508425       -2.6970925151       -0.2381862095
 C          0.5935724684       -4.0775075284        1.4113731884
 H         -0.0118128015       -4.9730963418        1.5595838617
 H          1.5864080264       -4.2844017982        1.8160145198
 C          0.0117774107       -2.9221748073        2.2293901839
 H          0.5172437007       -1.9944115122        1.9485190533
 H          0.2209189568       -3.1110771553        3.2859749207
 C         -1.5010233544       -2.7036668860        2.0941114516
 H         -2.0257193312       -3.6542597200        2.2155426345
 H         -1.8163863959       -2.0308084079        2.8970330347
 H         -0.1777669227       -5.5249865198       -0.9633139559
 H         -0.1742822250       -4.0895416685       -1.9978569471
 H         -2.0009605077       -4.6688412851        0.3680410578
 H         -2.4375460986       -4.4963735105       -1.3427841226
 O         -2.3526792467       -2.0590633865       -1.5205310737
 C         -2.6112367525       -0.6985954022       -1.5503148839
 O         -2.8819900637       -0.2506187924       -2.6858181537
 H         -0.2710183211        0.9469450545       -0.6410588542
 C         -0.4273552238        1.8649340667       -0.0927812005
 C         -1.7226535910        2.3122917736        0.1322688263
 C         -1.8996936237        3.5116760012        0.8105434157
 C         -0.8043109249        4.2294584209        1.2601529184
 C          0.4812867898        3.7628171489        1.0625860134
 C          0.6687372495        2.5581309762        0.3910426531
 N          1.9604553748        2.0278774745        0.2398648089
 S          2.2452954260        0.6040579129       -0.5957389405
 O          1.9812536224        0.7716709338       -2.0107512235
 O          1.5540796941       -0.4704152377        0.0668493333
 C          4.0005159572        0.4533677234       -0.3254181849
 C          4.8790554707        0.9817092073       -1.2522742541
 C          6.2414219782        0.8900449731       -1.0139659652
 C          6.6998220378        0.2756444240        0.1417206344
 C          5.8062960144       -0.2533655798        1.0612151890
 C          4.4430184676       -0.1646763070        0.8284504659
 H          3.7103253302       -0.5671984122        1.5087476604
 H          6.1656932720       -0.7339859550        1.9567791186
 H          7.7602781090        0.2057650259        0.3254942813
 H          6.9384171033        1.2964720122       -1.7290059784
 H          4.4772036436        1.4389320431       -2.1422579348
 H          2.6921776275        2.7146154347        0.1360960420
 H          1.3332732276        4.3131197771        1.4299582051
 H         -0.9561155919        5.1628629145        1.7806920647
 H         -2.8957254357        3.8838028231        0.9873576820
 C         -2.8767170617        1.4984742888       -0.4036197639
 H         -3.0042062597        1.7481411098       -1.4685656997
 C         -4.1795710893        1.7753280810        0.3219153800
 C         -5.1102642338        2.8464103544       -0.1597404792
 C         -5.4685685880        1.4035239945       -0.3453088855
 H         -6.2594028647        0.9828236265        0.2572159861
 H         -5.4044263906        0.9816223404       -1.3382057376
 H         -4.8179906234        3.4086630314       -1.0339143137
 H         -5.6611154757        3.4177636846        0.5722234125
 H         -4.1004325358        1.6037809934        1.3893874091
 O         -2.1454335937        0.0352088301        1.9638428413
