  62
        -98.93167710
 C         -2.2432917345        0.1076329196        0.5199143493
 C         -3.4930164385        0.1407020080        1.1861082017
 C         -4.6856648991        0.3978413422        0.3603156891
 C         -4.5363196756        0.6175658028       -0.9589652289
 C         -5.5493197098        0.9393291913       -2.0379204508
 C         -7.0434958332        0.7543684140       -1.7862599217
 C         -7.4894106901       -0.6984674935       -1.6232542332
 H         -8.5461938102       -0.7029069991       -1.3477319216
 H         -7.3951775971       -1.2008958373       -2.5892631563
 C         -6.7065537578       -1.5186271334       -0.6008911103
 H         -7.1215653279       -2.5302362507       -0.5951588275
 H         -5.6646847669       -1.6018449324       -0.9175670577
 C         -6.7498720212       -0.9911914082        0.8319497514
 H         -6.2905643828       -1.7470192919        1.4750265787
 H         -7.7877605358       -0.8704505289        1.1480305625
 C         -6.0063531695        0.3340971139        1.0721510748
 H         -5.7814765421        0.4065816259        2.1402734841
 H         -6.6257274175        1.1884678793        0.8103067143
 H         -7.5583041293        1.1604118465       -2.6612312637
 H         -7.3579047885        1.3480382697       -0.9330495091
 H         -5.3700781034        1.9856255465       -2.3089048270
 H         -5.2559976468        0.3429315516       -2.9077512318
 O         -3.3052853032        0.6281603935       -1.5483911851
 C         -2.1361642719        0.3748260397       -0.8442646333
 O         -1.1095864006        0.4257250543       -1.5459676217
 O         -3.6100278033       -0.0273278311        2.4295983404
 C         -1.0082399144       -0.1743458882        1.3548720246
 C          0.0917026305        0.8016800349        1.0245812372
 C         -0.1079170395        2.1527878977        1.2987442305
 C          0.8723887310        3.0836122591        1.0170727941
 C          2.0816195424        2.6853496395        0.4743120167
 C          2.2875116686        1.3412742556        0.1899697703
 C          1.2952169098        0.4098068789        0.4626758247
 H          1.4763975874       -0.6219767495        0.2117047022
 N          3.4921333063        0.9054203767       -0.3841654864
 S          4.1040748983       -0.5947010625        0.0857786847
 O          3.5218232274       -1.6266683279       -0.7343723155
 O          3.9603100117       -0.7600463626        1.5152910315
 C          5.8242807959       -0.3887502143       -0.3400564732
 C          6.7145148629        0.0365122353        0.6281507042
 C          8.0431962021        0.2244335287        0.2812910964
 C          8.4566033807       -0.0118618323       -1.0212300168
 C          7.5518597497       -0.4392144041       -1.9818190086
 C          6.2220237640       -0.6299290237       -1.6415709237
 H          5.4847136733       -0.9689398048       -2.3506818350
 H          7.8772637692       -0.6250231722       -2.9926777666
 H          9.4910278877        0.1349783426       -1.2889109402
 H          8.7495425209        0.5531333226        1.0264778446
 H          6.3498318449        0.1982099820        1.6298122709
 H          4.2075550735        1.6191012259       -0.3958181831
 H          2.8522261143        3.4103264954        0.2598848166
 H          0.7000609815        4.1277605507        1.2315073264
 H         -1.0502145942        2.4624990563        1.7308682632
 H         -1.3293131773        0.0198167125        2.3927783686
 C         -0.5456180960       -1.6228456638        1.3107391918
 C         -1.5235564225       -2.7445831464        1.1354856853
 C         -0.5440968869       -2.4276954893        0.0473309058
 H          0.2809994184       -3.1043883923       -0.1242701013
 H         -0.9032383168       -1.9495220709       -0.8507457339
 H         -1.3808445657       -3.6456430650        1.7127328399
 H         -2.5600732254       -2.4828210583        0.9798294215
 H          0.2772402876       -1.8036546730        1.9975328972
