  62
        -98.94059215
 C          2.3414755388       -0.1645966328       -0.2834164232
 C          3.5132396766       -0.5213658862       -0.9926959583
 C          4.7256543674        0.2249855003       -0.6394837802
 C          4.6629062278        1.1984139998        0.2874722804
 C          5.8072215983        2.0653557782        0.7382508180
 C          6.6828979971        1.4261982466        1.8247477916
 C          7.5868433919        0.2892688662        1.3464461111
 H          8.1632313121        0.6234627511        0.4832757957
 H          8.2950399931        0.0832788753        2.1514604014
 C          6.8432936575       -1.0083839702        1.0003520689
 H          5.8435583191       -0.9845251473        1.4403346428
 H          7.3672517217       -1.8579161045        1.4441982541
 C          6.7171080629       -1.2872415883       -0.4974393891
 H          6.1426648488       -2.2080991556       -0.6266425785
 H          7.7091642684       -1.4461993940       -0.9258469728
 C          6.0152308628       -0.1765255443       -1.2898003611
 H          6.6739692920        0.6851999318       -1.3943334444
 H          5.7796317504       -0.5615312714       -2.2849860713
 H          6.0350076533        1.0644555948        2.6265009147
 H          7.3153816729        2.2148115298        2.2388117028
 H          5.3638340342        2.9766327676        1.1451209832
 H          6.4255970135        2.3318834320       -0.1192312210
 O          3.5095758246        1.5289894604        0.9279801713
 C          2.3272720176        0.8479085824        0.6756687302
 O          1.3575045454        1.2372276950        1.3537366457
 O          3.5416086839       -1.4126623402       -1.8835004613
 C          1.0522807355       -0.9093725083       -0.5753314977
 C         -0.0240107916        0.0527496552       -1.0126619431
 C          0.2550927660        0.9495640524       -2.0417616553
 C         -0.7016821203        1.8442415300       -2.4783116032
 C         -1.9635349334        1.8551210477       -1.9096510291
 C         -2.2528135052        0.9647826491       -0.8832936137
 C         -1.2862097432        0.0704326537       -0.4426052496
 H         -1.5406992622       -0.6078875410        0.3541765305
 N         -3.5147893115        0.9687549540       -0.2684180872
 S         -4.1611247437       -0.4925926305        0.2724416341
 O         -3.6303092711       -0.7908058379        1.5786394590
 O         -3.9894403019       -1.5141298793       -0.7360642839
 C         -5.8824932887       -0.0464830250        0.4113123885
 C         -6.7477460115       -0.3504167656       -0.6228110394
 C         -8.0775535010        0.0258843178       -0.5170093946
 C         -8.5166929410        0.6984002183        0.6134719696
 C         -7.6366710013        0.9960010152        1.6435468931
 C         -6.3060423092        0.6217386079        1.5447139504
 H         -5.5880071515        0.8232155028        2.3226610646
 H         -7.9822164947        1.5164484285        2.5221694661
 H         -9.5519804719        0.9898567447        0.6939488597
 H         -8.7647678728       -0.2071995147       -1.3142911289
 H         -6.3635107579       -0.8826602416       -1.4780921613
 H         -4.1975809757        1.5198703998       -0.7700350985
 H         -2.7129874401        2.5527235748       -2.2514145325
 H         -0.4674117275        2.5352690543       -3.2742369342
 H          1.2388684503        0.9358119198       -2.4915413681
 H          1.2817638698       -1.5713957293       -1.4244610447
 C          0.6557714636       -1.7638689059        0.6098542422
 C         -0.1796941315       -2.9914425700        0.4082527515
 C          1.2681950060       -3.1214437441        0.7718932465
 H          1.5231070593       -3.4573248075        1.7658269992
 H          1.9594706182       -3.4471743419        0.0083048814
 H         -0.9270916320       -3.2315259591        1.1501394377
 H         -0.4778348048       -3.2322757905       -0.6012655677
 H          0.4901398964       -1.1790058869        1.5086865562
