  62
        -98.93731049
 C         -2.6503859047       -0.4678785421       -0.0885982640
 C         -2.1461334708       -1.4524129563       -0.9711915930
 C         -1.3665358232       -2.5325157032       -0.3583011306
 C         -1.1926101297       -2.5509981930        0.9754144726
 C         -0.4165393763       -3.5754709209        1.7578643633
 C          1.1070052835       -3.5565752666        1.5190258836
 C          1.5909334129       -4.5773273750        0.4806575530
 H          2.5295525040       -5.0125182970        0.8296500449
 H          0.8673656826       -5.3922125355        0.4290326929
 C          1.8459776412       -4.0321946474       -0.9282199546
 H          2.8152458852       -3.5284179762       -0.9422678251
 H          1.9053545300       -4.8820182679       -1.6121656153
 C          0.8089168949       -3.0407638210       -1.4558262373
 H          0.9345473350       -2.0790879434       -0.9513342337
 H          1.0077879289       -2.8676771468       -2.5162270132
 C         -0.6567698864       -3.4859743496       -1.2754115632
 H         -0.7075562029       -4.5030267662       -0.8899025988
 H         -1.1786873020       -3.4513056103       -2.2340258542
 H          1.4088907299       -2.5448578556        1.2440569907
 H          1.5835009051       -3.7869624685        2.4735521361
 H         -0.6170984871       -3.3570810917        2.8086167295
 H         -0.8125821489       -4.5693811205        1.5374921682
 O         -1.7414478223       -1.6164489731        1.7966861000
 C         -2.4113233827       -0.5171511199        1.2850792306
 O         -2.7570284128        0.3168596600        2.1449675614
 O         -2.3208810649       -1.4145486330       -2.2209726007
 C         -3.2754477410        0.7876409770       -0.6791606071
 C         -2.2802825525        1.8976601391       -0.4373646168
 C         -2.5556646693        3.0738251292        0.2454736740
 C         -1.5365282219        3.9612881857        0.5534809613
 C         -0.2255476915        3.6906013206        0.2041136871
 C          0.0502752656        2.5339120334       -0.5097627942
 C         -0.9714298632        1.6655774733       -0.8443851602
 H         -0.7391771563        0.7553858097       -1.3840072165
 N          1.4049593359        2.1916295384       -0.8070709934
 S          1.9877303888        1.1953138482        0.4395057227
 O          1.3639231093       -0.1098177329        0.3774706230
 O          1.8514806805        1.9176272005        1.6782695620
 C          3.7104159732        1.0602260487       -0.0005666534
 C          4.1744579717       -0.0925263125       -0.6034168020
 C          5.5093987344       -0.1673351192       -0.9694441847
 C          6.3506246721        0.9088366888       -0.7318057435
 C          5.8690493835        2.0610145453       -0.1276794086
 C          4.5361113454        2.1410950370        0.2417547451
 H          4.1170602509        3.0105605585        0.7200402109
 H          6.5268093909        2.8951204454        0.0559983886
 H          7.3887687323        0.8481914820       -1.0178214979
 H          5.8858228323       -1.0623697852       -1.4380127809
 H          3.4845956905       -0.9059511951       -0.7646803561
 H          1.4512408972        1.6424999420       -1.6580835997
 H          0.5815713670        4.3450296621        0.4888798126
 H         -1.7655132827        4.8633680463        1.1003654557
 H         -3.5638971136        3.2828043572        0.5643289016
 H         -3.3427908256        0.6034434938       -1.7612604876
 C         -4.6584634390        1.0610940043       -0.1362194949
 C         -5.6152824711        1.9033230838       -0.9251209372
 C         -5.8407966341        0.4271802994       -0.8037748370
 H         -6.6527078951        0.0764055930       -0.1849244546
 H         -5.6505805066       -0.1932958594       -1.6672635056
 H         -6.2771116410        2.5680432730       -0.3912430351
 H         -5.2753484695        2.2872426151       -1.8749829185
 H         -4.6755546830        1.1379268671        0.9445294876
