  62
        -98.94492737
 C          2.2077225279        0.9902195276        0.5383269717
 C          2.2938974918        0.1296670571       -0.5831102420
 C          3.0885251670       -1.0899979728       -0.3878597522
 C          3.6404340029       -1.3460961412        0.8121064545
 C          4.4593521942       -2.5563276260        1.1712802326
 C          5.9402087106       -2.4450078464        0.7829924695
 C          6.2309703846       -2.5558668311       -0.7141919290
 H          7.3100097061       -2.6825123962       -0.8217711096
 H          5.7566555163       -3.4546713468       -1.1095126414
 C          5.7930942199       -1.3361106586       -1.5369756139
 H          5.6264235414       -0.4872196563       -0.8699624693
 H          6.5948776548       -1.0524419058       -2.2222405618
 C          4.5359442731       -1.5568905733       -2.3785136416
 H          4.2953360660       -0.6209572129       -2.8889316389
 H          4.7319575216       -2.3149306711       -3.1400252693
 C          3.3033671196       -1.9846218519       -1.5709741250
 H          3.4032430104       -3.0220709077       -1.2515937205
 H          2.4225730465       -1.9009404458       -2.2131107554
 H          6.3294841457       -1.4968521981        1.1608080840
 H          6.4715829297       -3.2504607339        1.2950352449
 H          4.0252546198       -3.4430941859        0.7081801788
 H          4.3949673416       -2.6642641103        2.2562803762
 O          3.4927210060       -0.5150815070        1.8788827922
 C          2.7888464554        0.6742302047        1.7653015214
 O          2.7413339647        1.3454979902        2.8168477613
 O          1.7378958973        0.3643315750       -1.6870689621
 C          1.4311076784        2.2902614210        0.4340334981
 C         -0.0026322099        2.0084177690        0.0528602525
 C         -0.6911594548        2.7252522964       -0.9166900856
 C         -2.0030824654        2.4070928269       -1.2234380537
 C         -2.6576131221        1.3793241900       -0.5702870291
 C         -1.9802457888        0.6592718070        0.4052186674
 C         -0.6681451347        0.9827334373        0.7128892410
 H         -0.1409657934        0.4175051538        1.4729286639
 N         -2.6397328039       -0.3788699366        1.0882192611
 S         -3.4167001176       -1.5568622721        0.1752496084
 O         -3.4429561285       -2.7301012002        1.0223136478
 O         -2.8079244440       -1.7151047449       -1.1248711817
 C         -5.0747215841       -0.9297524022        0.0054518895
 C         -5.6177207536       -0.7465546359       -1.2510934691
 C         -6.9116485675       -0.2601478496       -1.3571300742
 C         -7.6354024494        0.0318289901       -0.2111868520
 C         -7.0764597976       -0.1609494641        1.0435556509
 C         -5.7841261180       -0.6478783144        1.1565417458
 H         -5.3141411734       -0.8162972301        2.1110675103
 H         -7.6424354118        0.0667334291        1.9324370111
 H         -8.6413602780        0.4113429917       -0.2964507169
 H         -7.3479249503       -0.1106528646       -2.3316502833
 H         -5.0148390620       -0.9829666492       -2.1135759385
 H         -2.0733735755       -0.8107715419        1.8043555852
 H         -3.6765291691        1.1244194656       -0.8114133733
 H         -2.5233291973        2.9681228555       -1.9846728502
 H         -0.1976295901        3.5270547209       -1.4406797223
 H          1.4350464502        2.7295940782        1.4426236887
 C          2.1337573570        3.2394175048       -0.5145950416
 C          2.0288389343        4.7212223667       -0.3191891012
 C          3.3146799441        4.0145027048       -0.0152823632
 H          4.1548783007        4.1589088799       -0.6778297590
 H          3.5941423869        3.8776005495        1.0195595615
 H          1.9892767114        5.3549751575       -1.1922406645
 H          1.4383087684        5.0755209121        0.5120357545
 H          2.1790495174        2.8552332246       -1.5272566359
