  62
        -98.93559941
 C         -2.3962507695       -0.5535020348       -0.1963049333
 C         -2.0774131121       -1.7129751883       -0.9392355886
 C         -1.3510849496       -2.7607745339       -0.2170874151
 C         -1.0321602113       -2.5754275771        1.0768320713
 C         -0.2640539020       -3.5369962459        1.9425770282
 C          1.2574061425       -3.4250343201        1.7693359042
 C          1.8108338092       -4.0343602370        0.4799300281
 H          2.8926778141       -4.1142580270        0.6040649805
 H          1.4193514278       -5.0453496839        0.3580524914
 C          1.5221207362       -3.2073936402       -0.7804231853
 H          2.4306312899       -3.1416571120       -1.3843219610
 H          1.2544776610       -2.1900373295       -0.4868986879
 C          0.4237723164       -3.7756830781       -1.6793989524
 H          0.7466656958       -4.7340658604       -2.0935252550
 H          0.2696779954       -3.0828590185       -2.5106082883
 C         -0.9262661992       -3.9795557458       -0.9811155513
 H         -1.6822342045       -4.1672684133       -1.7481997587
 H         -0.8796438585       -4.8429069261       -0.3175245122
 H          1.7222228241       -3.9326451285        2.6182690441
 H          1.5320968429       -2.3676293301        1.8171225645
 H         -0.5845799907       -4.5594874822        1.7388470669
 H         -0.5135570097       -3.2919528735        2.9772746684
 O         -1.3994837271       -1.4671483086        1.7712632472
 C         -2.0545405172       -0.4160909928        1.1501552407
 O         -2.2898666909        0.5534492778        1.8973266379
 O         -2.3809317989       -1.8590778195       -2.1562545866
 C         -3.0672729208        0.6125461605       -0.9155458925
 C         -2.2822908928        1.8624887056       -0.5922638102
 C         -2.7599683816        3.0905702249       -0.1563833784
 C         -1.8850582249        4.1192845065        0.1581893107
 C         -0.5180255575        3.9436097179        0.0854353388
 C         -0.0240841718        2.7247198692       -0.3641930034
 C         -0.9024037009        1.7294304107       -0.7470294585
 H         -0.5007523726        0.7950853310       -1.1099119032
 N          1.3664659968        2.4686794660       -0.4327989451
 S          1.9291184851        1.2176794188        0.5645790491
 O          1.1816435073        0.0143463011        0.3227426581
 O          1.9826935745        1.6894314075        1.9344707874
 C          3.5874334783        1.0359063936       -0.0634639050
 C          3.7887201123        0.2355265157       -1.1708744336
 C          5.0697841808        0.1115117270       -1.6845095265
 C          6.1219940507        0.7894837350       -1.0871122286
 C          5.9046702201        1.5891393529        0.0246123906
 C          4.6255856855        1.7161993576        0.5432036467
 H          4.4123232206        2.3152033149        1.4138094273
 H          6.7249568434        2.1122434777        0.4890665997
 H          7.1179271752        0.6910502188       -1.4891741871
 H          5.2416052313       -0.5122812509       -2.5468726423
 H          2.9421540800       -0.2783164046       -1.5967270888
 H          1.9011317886        3.2968248919       -0.1972149236
 H          0.1601051525        4.7308033893        0.3804161673
 H         -2.2826421358        5.0639468798        0.4981817198
 H         -3.8119193668        3.2686300757       -0.0282482462
 H         -2.9126527328        0.4043992912       -1.9889830972
 C         -4.5672364760        0.5099862531       -0.6841210209
 C         -5.3087901618        1.1238566028        0.4608754716
 C         -5.5796056939        1.5854583581       -0.9419550800
 H         -6.5140101739        1.2865789405       -1.3941395292
 H         -5.2424485778        2.5578986145       -1.2596545510
 H         -6.0587692858        0.5226756031        0.9545415372
 H         -4.7529705871        1.7497987064        1.1400684884
 H         -4.8848775739       -0.4939662129       -0.9591286536
