  62
        -98.94096183
 C          1.9664874661        0.3085288440        0.1902361887
 C          3.0780609852        0.9247847272        0.8232181891
 C          4.3231100028        0.1473359986        0.8608154339
 C          4.3316018737       -1.1005253710        0.3590274768
 C          5.5396424216       -1.9876922401        0.2853517400
 C          6.2829798412       -1.8037995193       -1.0452570122
 C          6.5532207547       -0.3429748325       -1.4061041334
 H          7.1082551572       -0.3377216027       -2.3467121342
 H          5.6015182905        0.1598610587       -1.5928454913
 C          7.3391010175        0.4386632930       -0.3439754502
 H          8.1170660187        1.0209839077       -0.8422291471
 H          7.8383191436       -0.2556903529        0.3328120233
 C          6.4983920473        1.4235134385        0.4707743004
 H          7.1796212817        2.0693409546        1.0311057670
 H          5.9254643917        2.0628075896       -0.2058341210
 C          5.5284364739        0.7967941055        1.4803546116
 H          6.0649907780        0.0876640517        2.1140154141
 H          5.1428216747        1.6007347584        2.1141863114
 H          7.2277993327       -2.3476236717       -0.9906581259
 H          5.6814760097       -2.2477827986       -1.8419909886
 H          5.2100623860       -3.0248636676        0.3675097681
 H          6.2022387719       -1.7604699590        1.1183206060
 O          3.2345531243       -1.6823899238       -0.1845248909
 C          2.0277439816       -0.9988363953       -0.2961572756
 O          1.1276071888       -1.6678441511       -0.8353249829
 O          3.0293824869        2.0749466913        1.3347168378
 C          0.6776634480        1.1108557258        0.1267936943
 C         -0.4742785580        0.2925943513        0.6486422404
 C         -0.6240618203        0.1278039175        2.0221170352
 C         -1.6560883342       -0.6357248967        2.5352819779
 C         -2.5564854181       -1.2571838034        1.6882555364
 C         -2.4114350189       -1.1038342393        0.3159906057
 C         -1.3863620256       -0.3200731440       -0.1965170844
 H         -1.2735775537       -0.2226414895       -1.2649882272
 N         -3.3177674050       -1.7440920235       -0.5513921009
 S         -4.9451088935       -1.4169092176       -0.3472011747
 O         -5.4204779731       -2.0661390824        0.8482411632
 O         -5.5778321758       -1.8136693806       -1.5846229819
 C         -5.0145996644        0.3540115239       -0.1511002343
 C         -5.0317550057        0.9018453594        1.1155621982
 C         -4.9956271477        2.2809092431        1.2481126174
 C         -4.9418859851        3.0830552713        0.1188835581
 C         -4.9299522241        2.5172348252       -1.1471095223
 C         -4.9603725561        1.1392778392       -1.2857726299
 H         -4.9579399148        0.6600110004       -2.2517104000
 H         -4.8918576895        3.1440387923       -2.0236628770
 H         -4.9106549388        4.1559901748        0.2253994729
 H         -5.0058457258        2.7238259374        2.2309528618
 H         -5.0793730928        0.2446570698        1.9678475469
 H         -3.0579825667       -1.6723008310       -1.5242482529
 H         -3.3630313581       -1.8642073635        2.0670993430
 H         -1.7580081582       -0.7542690396        3.6034494242
 H          0.0868752743        0.6010266583        2.6853901616
 H          0.8471134509        1.9431436431        0.8289626411
 C          0.3897627326        1.7433076835       -1.2270091605
 C          1.5069506284        2.2899345499       -2.0631950095
 C          0.7381322052        1.0923050302       -2.5306621192
 H          0.0561347980        1.2160522200       -3.3597098575
 H          1.2179717249        0.1265987589       -2.5040838173
 H          1.3606144759        3.2302903722       -2.5726111027
 H          2.5145038677        2.1397204496       -1.7032946416
 H         -0.5272688591        2.3246800113       -1.2074838033
