  62
        -98.93245344
 C          1.6887961909        1.1430445783        0.6020618607
 C          1.9999459003       -0.2199939518        0.3764168502
 C          3.4327439302       -0.5366114223        0.2457422903
 C          4.3529344106        0.4289708472        0.4111345607
 C          5.8494807305        0.2687486066        0.3617030908
 C          6.4468193605       -0.1343670832       -1.0003033993
 C          6.6485138598       -1.6439878033       -1.1813304898
 H          6.7403977396       -2.1067204536       -0.1979585499
 H          7.5963751498       -1.8120463835       -1.6966043398
 C          5.5680832396       -2.3703798625       -1.9884363701
 H          5.6959448391       -3.4433487326       -1.8294872705
 H          5.7249426198       -2.1751277222       -3.0517796701
 C          4.1232886897       -1.9912084520       -1.6625181901
 H          3.4619896195       -2.7095860016       -2.1517903904
 H          3.8931049202       -1.0157048618       -2.0982321698
 C          3.7958847896       -1.9359490724       -0.1574245702
 H          4.6342560394       -2.3021456029        0.4333336898
 H          2.9246520793       -2.5584795321        0.0580456796
 H          7.4221205507        0.3495390464       -1.0725068991
 H          5.8275837807        0.2662329673       -1.8025035392
 H          6.1490659301       -0.4601277438        1.1181715105
 H          6.2545982909        1.2394485363        0.6548432211
 O          4.0123435611        1.7144156973        0.7028133511
 C          2.6861708913        2.1035252078        0.7910431711
 O          2.5256672918        3.3117683378        1.0539979214
 O          1.1436434399       -1.1377023714        0.2927766699
 C          0.2537759911        1.6301700989        0.7047915607
 C         -0.5656410394        0.6848091990        1.5477761803
 C         -0.2123074796        0.5078881484        2.8830732703
 C         -0.9340801501       -0.3432577116        3.6963525499
 C         -2.0337228503       -1.0212940110        3.2008273696
 C         -2.4014975501       -0.8449114804        1.8718948796
 C         -1.6676123197        0.0041545996        1.0545529700
 H         -1.9364100095        0.0906162300        0.0160047000
 N         -3.5506240703       -1.4691802897        1.3753627893
 S         -3.8448152603       -1.7422396890       -0.2409940308
 O         -5.0434221806       -2.5560350985       -0.2365647512
 O         -2.7122051205       -2.3049490693       -0.9364909409
 C         -4.2359867895       -0.1332798487       -0.8974781403
 C         -4.9879416492        0.7418931514       -0.1391546401
 C         -5.2974112686        1.9861211417       -0.6650661497
 C         -4.8576442684        2.3313290919       -1.9340271396
 C         -4.1112908487        1.4379409419       -2.6866328398
 C         -3.7981350493        0.1922703516       -2.1658447102
 H         -3.2113849195       -0.5312311185       -2.7102652203
 H         -3.7703671885        1.7069761220       -3.6738854897
 H         -5.0962453579        3.3019946022       -2.3393285593
 H         -5.8778544684        2.6838699118       -0.0832067295
 H         -5.3099410294        0.4438000512        0.8444888698
 H         -3.9732602907       -2.1608096897        1.9750774591
 H         -2.6002701406       -1.6859917109        3.8350245893
 H         -0.6404204002       -0.4813884620        4.7262134299
 H          0.6485923006        1.0372835779        3.2693171705
 H          0.3178417014        2.5886873387        1.2464211210
 C         -0.3875348787        1.9349446196       -0.6414582993
 C          0.4350407016        2.4248747396       -1.7944501990
 C         -0.1812462689        1.0605464499       -1.8398346095
 H         -1.0177115789        0.8966518905       -2.5028667397
 H          0.4553564307        0.1969249196       -1.7262706298
 H          0.0224628620        3.1974899500       -2.4252355588
 H          1.5030880317        2.5023646391       -1.6512233789
 H         -1.3707942685        2.3826079400       -0.5300759392
