  62
        -98.94452676
 C         -1.4844455023       -1.5127776480        0.4316889052
 C         -1.6797240223       -0.2895971530        1.1200091266
 C         -2.8290054842        0.5169771757        0.6891929752
 C         -3.5988093246        0.0757323380       -0.3224017763
 C         -4.7686556658        0.8189912179       -0.8983075153
 C         -4.3371495467        1.7166748703       -2.0663463882
 C         -3.1327765549        2.6034836593       -1.7500031054
 H         -2.2533899884        1.9719786843       -1.6023126778
 H         -2.9418390104        3.2185689367       -2.6318861359
 C         -3.3182239115        3.5079359181       -0.5239350175
 H         -2.9597260607        4.5090796337       -0.7708103718
 H         -4.3785818827        3.5938435846       -0.2839472345
 C         -2.5495641924        3.0532078195        0.7176628862
 H         -2.5688847565        3.8680072716        1.4458229734
 H         -1.5056805030        2.8695691999        0.4530564225
 C         -3.0898775576        1.8028932329        1.4219694713
 H         -4.1571234850        1.9211748456        1.6207607439
 H         -2.5699036950        1.7111221413        2.3798382890
 H         -5.1859212750        2.3402234415       -2.3533907404
 H         -4.0808961643        1.0795473303       -2.9160212662
 H         -5.4938035988        0.0887981855       -1.2616303571
 H         -5.2321018114        1.4183498374       -0.1171149030
 O         -3.3664352410       -1.0908866467       -0.9748068303
 C         -2.3033780915       -1.9115824797       -0.6250446808
 O         -2.2117675811       -2.9427127252       -1.3169370182
 O         -0.9326812693        0.1049934167        2.0548323880
 C         -0.3127546065       -2.3890174704        0.8428282023
 C          0.7260272406       -2.3516437748       -0.2505307482
 C          0.9418534730       -3.3997375897       -1.1356076264
 C          1.8846712085       -3.2794070695       -2.1414666913
 C          2.6448582207       -2.1313315109       -2.2660702306
 C          2.4408062816       -1.0779295258       -1.3810679867
 C          1.4754872947       -1.1892697037       -0.3937076606
 H          1.3075803328       -0.3650480691        0.2847030400
 N          3.1968327637        0.1005021466       -1.4779309777
 S          3.7899392911        0.8190343703       -0.0830583898
 O          4.9915508250        1.5025147846       -0.5160630699
 O          3.9560488174       -0.1454300470        0.9783554836
 C          2.5787072799        2.0454637443        0.3544971768
 C          1.9803209175        2.0168190773        1.5975242894
 C          1.0866250310        3.0208460202        1.9341968013
 C          0.8113104752        4.0316289801        1.0265210053
 C          1.4155595173        4.0426794047       -0.2222463970
 C          2.3096527430        3.0418935479       -0.5637695025
 H          2.8100859822        3.0210557586       -1.5175893068
 H          1.1922804276        4.8278537045       -0.9265567296
 H          0.1212433031        4.8160055097        1.2948482428
 H          0.6039954533        3.0001121403        2.8978288054
 H          2.2153555461        1.2122531712        2.2762721671
 H          3.8956365561        0.0895339829       -2.2070200570
 H          3.3907184848       -2.0460032544       -3.0421120730
 H          2.0375745039       -4.0963859495       -2.8304754856
 H          0.3598139245       -4.3018910888       -1.0485094057
 H          0.1187430817       -1.9004115038        1.7280239231
 C         -0.7529656434       -3.7851951505        1.2268680778
 C          0.1778032752       -4.6561922087        2.0148033170
 C         -1.0476466901       -4.0885315417        2.6639791279
 H         -1.8663018656       -4.7545165552        2.8920803517
 H         -0.9234315653       -3.2888943699        3.3796132242
 H          0.2027599139       -5.7135597432        1.7998544760
 H          1.1364347635       -4.2400738187        2.2870800156
 H         -1.3835240718       -4.2558710150        0.4825435247
