  62
        -98.94823094
 C         -1.3053569591       -1.1677555116       -0.0262176709
 C         -2.0682408892       -0.5868424823        1.0145423195
 C         -2.6358766900        0.7383779275        0.7352865000
 C         -2.3785274707        1.3284384879       -0.4461684799
 C         -2.9226276916        2.6586251877       -0.8780322695
 C         -4.2540774117        2.4994655171       -1.6257660192
 C         -5.2661827510        1.6110350163       -0.9026660691
 H         -6.1756980011        1.5950117760       -1.5068893089
 H         -4.8834079704        0.5885097665       -0.8693157395
 C         -5.6075187109        2.0686170258        0.5222222011
 H         -6.6896978008        2.0152854051        0.6581273214
 H         -5.3147414514        3.1104199259        0.6576816613
 C         -4.9782513401        1.2197442559        1.6285760307
 H         -5.1914986395        0.1633029258        1.4466445605
 H         -5.4511537200        1.4902362153        2.5764559109
 C         -3.4635916701        1.3796422667        1.8127364804
 H         -3.2115896007        2.4379196068        1.9123648606
 H         -3.1842926496        0.8764026166        2.7435005302
 H         -4.0505101317        2.0595094375       -2.6045578993
 H         -4.6829474223        3.4910825169       -1.7806868088
 H         -2.1949660020        3.1281124283       -1.5422803095
 H         -3.0567440417        3.2901931574       -0.0017942993
 O         -1.6214038906        0.7513491186       -1.4126993803
 C         -1.0684013598       -0.5107925411       -1.2325496108
 O         -0.4016540598       -0.9185101505       -2.2015275210
 O         -2.2657601385       -1.1532762627        2.1242925594
 C         -0.6705608883       -2.5282501513        0.1979140486
 C          0.8331886717       -2.4025817704        0.1529640582
 C          1.6502838219       -3.2275043597       -0.6088030622
 C          3.0233009818       -3.0514406289       -0.6027752625
 C          3.6065651515       -2.0515711188        0.1529025776
 C          2.7990515312       -1.2256229494        0.9273480280
 C          1.4262895713       -1.4133681802        0.9296488683
 H          0.8083574411       -0.7678682207        1.5379182987
 N          3.3625740408       -0.2078187793        1.7225124981
 S          2.8067913398        1.3614048204        1.5545529187
 O          3.7571034696        2.1649240408        2.2923482986
 O          1.4313796999        1.4517698495        1.9723835791
 C          2.9557960992        1.6946097910       -0.1885241613
 C          1.9176227992        1.3275978106       -1.0188760411
 C          2.0583412887        1.4899608110       -2.3872669611
 C          3.2320597783        2.0220197218       -2.8984160613
 C          4.2648796483        2.3955242222       -2.0505440815
 C          4.1326343187        2.2237615218       -0.6821340215
 H          4.9090553488        2.4999853020        0.0129641684
 H          5.1736291679        2.8131964828       -2.4532134116
 H          3.3399668379        2.1457630021       -3.9644364713
 H          1.2505563987        1.1796654907       -3.0316188910
 H          1.0174534495        0.9176640299       -0.5895069210
 H          4.3733937208       -0.2073782187        1.7218515579
 H          4.6767611414       -1.9107422881        0.1507048373
 H          3.6465427120       -3.6973243884       -1.2020575728
 H          1.2124624922       -4.0064307798       -1.2106418223
 H         -0.9539693278       -2.8146904317        1.2221064686
 C         -1.2313021779       -3.5508223913       -0.7673830015
 C         -1.2734875070       -5.0001984915       -0.3885619919
 C         -2.5412741575       -4.2037513522       -0.4466807313
 H         -3.2349983376       -4.3918664024       -1.2523394912
 H         -3.0178929774       -3.9287671127        0.4832599589
 H         -1.0996644967       -5.7396641112       -1.1555205921
 H         -0.8923222666       -5.2736152015        0.5837129780
 H         -1.0419286983       -3.2949167310       -1.8035070915
