  62
        -98.94562592
 C          2.5000341102        1.1621195970       -0.0154770552
 C          3.1306752139        0.3033586906        0.9159235910
 C          3.7014443596       -0.9307944060        0.3667477862
 C          3.6022969263       -1.1825299231       -0.9514232536
 C          4.1403302673       -2.3941671874       -1.6629737589
 C          3.2010492124       -3.6073902956       -1.6164504433
 C          3.1072144963       -4.3048922686       -0.2587490178
 H          2.5923179702       -5.2538148993       -0.4210234227
 H          4.1106088332       -4.5345604809        0.1012728103
 C          2.3448754427       -3.5091722334        0.8103614948
 H          1.7476890566       -2.7303982043        0.3275133475
 H          1.6416855665       -4.1692683144        1.3242719668
 C          3.2347620624       -2.8710537223        1.8779470644
 H          2.5967462869       -2.3060310908        2.5627625749
 H          3.7329564758       -3.6545606101        2.4529615898
 C          4.3008470179       -1.9156116405        1.3249413572
 H          5.0982354368       -2.4802085580        0.8430583922
 H          4.7230983730       -1.3530073873        2.1610985895
 H          2.2034904775       -3.2904658442       -1.9318108191
 H          3.5662873605       -4.3315712694       -2.3482513533
 H          5.1099865966       -2.6662348947       -1.2454299367
 H          4.2777160548       -2.1059295666       -2.7072495683
 O          2.9924039615       -0.3294477640       -1.8158018635
 C          2.3946240186        0.8413322807       -1.3693781389
 O          1.8263023569        1.4969520050       -2.2621614075
 O          3.2046897051        0.5522760963        2.1502459663
 C          1.8292978608        2.4265476198        0.4945989472
 C          0.3380549544        2.2803226215        0.3139560847
 C         -0.4513051785        3.1733607230       -0.3965565456
 C         -1.8051878165        2.9321370299       -0.5606889984
 C         -2.3989150141        1.8067297077       -0.0198685973
 C         -1.6190009421        0.9108639422        0.7005658139
 C         -0.2668787363        1.1568331393        0.8665067888
 H          0.3414151826        0.4530750606        1.4226568136
 N         -2.2160910039       -0.2432351136        1.2526102283
 S         -2.8660285701       -1.3276945917        0.1392641347
 O         -2.8540221884       -2.6118553430        0.8063041323
 O         -2.1785171956       -1.2563451913       -1.1304424264
 C         -4.5490446840       -0.7762915290       -0.0367088028
 C         -5.0062905168       -0.3355743460       -1.2629428236
 C         -6.3176301220        0.1015620301       -1.3702280724
 C         -7.1425951869        0.0902333090       -0.2557917637
 C         -6.6684662983       -0.3591126291        0.9678931115
 C         -5.3592171451       -0.7983314585        1.0818554532
 H         -4.9509627829       -1.1598766998        2.0107380229
 H         -7.3133005254       -0.3673224630        1.8317823950
 H         -8.1613123077        0.4337956914       -0.3419027811
 H         -6.6878484919        0.4507141765       -2.3207163817
 H         -4.3251448679       -0.3385415637       -2.0991363893
 H         -1.5981751273       -0.7413117804        1.8787258608
 H         -3.4512453956        1.6144803794       -0.1511744201
 H         -2.4058520662        3.6306275938       -1.1229390112
 H         -0.0046919166        4.0501234917       -0.8353406136
 H          2.0414740038        2.4526384847        1.5737294707
 C          2.4131447185        3.6646524657       -0.1483221151
 C          2.3135083712        4.9862185306        0.5516085516
 C          3.6351573828        4.2871189331        0.4552469880
 H          4.3873933080        4.6900791272       -0.2059913926
 H          4.0388083792        3.8275960658        1.3457296621
 H          2.1598956676        5.8740661941       -0.0425948684
 H          1.8196864939        5.0060908327        1.5112368534
 H          2.3429720841        3.6481874461       -1.2296551973
