  62
        -98.94335250
 C          1.8796995334        0.8358074803        0.6718674043
 C          2.2493862268        0.4331337917       -0.6343265096
 C          3.6904849738        0.4591265976       -0.9245346793
 C          4.5471015356        0.8856634727        0.0214565668
 C          6.0409388905        0.9087546396       -0.1214864632
 C          6.6651130347       -0.3997815326        0.3834320220
 C          5.9966662259       -1.6572244228       -0.1726426216
 H          6.5380224421       -2.5172911467        0.2276056859
 H          4.9743412384       -1.7163059701        0.2081496732
 C          5.9702816033       -1.7371986619       -1.7054278529
 H          6.7053281880       -1.0490982811       -2.1245104127
 H          6.2610075195       -2.7454626354       -2.0079427924
 C          4.6021812611       -1.4609012080       -2.3321361878
 H          3.8443487926       -2.0824140076       -1.8481103327
 H          4.6447052165       -1.7568516384       -3.3836954057
 C          4.1289635661       -0.0024443872       -2.2857407389
 H          4.9078939921        0.6506376669       -2.6841546723
 H          3.2469711835        0.0806779596       -2.9272993128
 H          7.7243598452       -0.4018492044        0.1200459282
 H          6.5859603554       -0.4233185463        1.4728949201
 H          6.2990765268        1.0675066251       -1.1665685870
 H          6.4306350199        1.7386581002        0.4703484116
 O          4.1485548633        1.3021682534        1.2512045110
 C          2.8116363928        1.2700808826        1.6133188310
 O          2.5840768343        1.6458342649        2.7817974182
 H         -2.0959650664        0.0958767257        0.2279034891
 C         -1.4727935193       -0.7529235570        0.4559061146
 C         -0.1701114342       -0.5665915534        0.8931517541
 C          0.5955267190       -1.6893596918        1.1963493444
 C          0.0818129410       -2.9611362114        1.0364156781
 C         -1.2178060795       -3.1421321925        0.5972747269
 C         -1.9994545594       -2.0298661672        0.3142805665
 N         -3.3217386245       -2.1760428190       -0.1315180395
 S         -4.5150928165       -1.1768527202        0.4836611425
 O         -4.2328513304       -0.7856853483        1.8449425996
 O         -5.7472379948       -1.9089395501        0.2770643946
 C         -4.5194464046        0.2506470252       -0.5798283793
 C         -4.3030357866        0.0840068171       -1.9333746398
 C         -4.3577442318        1.1944460909       -2.7605520044
 C         -4.6363224816        2.4435923923       -2.2265164724
 C         -4.8576234539        2.5930702638       -0.8662585692
 C         -4.7987709902        1.4870393480       -0.0323672240
 H         -4.9511606435        1.5606805125        1.0326259372
 H         -5.0739352485        3.5649547176       -0.4515201224
 H         -4.6795362243        3.3057082810       -2.8733599601
 H         -4.1828690294        1.0826542315       -3.8185602398
 H         -4.0870166108       -0.8996357204       -2.3154760806
 H         -3.6409734130       -3.1310229077       -0.2067382669
 H         -1.6227013812       -4.1354311204        0.4757384667
 H          0.6947725736       -3.8205972503        1.2638072024
 H          1.6075803891       -1.5514782082        1.5529007453
 C          0.4192501032        0.8108668199        1.0804200069
 H          0.3973099991        1.0432545953        2.1560809332
 C         -0.3394241030        1.8909715503        0.3351713217
 C         -1.4988003560        2.5904583222        0.9764825378
 C         -0.1987943103        3.3117137120        0.7894478868
 H         -0.1423351369        4.0895190686        0.0430712835
 H          0.4185640382        3.4930863333        1.6575409696
 H         -2.3343366983        2.8738233298        0.3542404848
 H         -1.7761306028        2.2888281639        1.9757506530
 H         -0.3790570377        1.7064898935       -0.7323821469
 O          1.4225981228        0.0669495486       -1.5089861258
