  62
        -98.94298479
 C          2.6835406193        1.2047621958        0.1334616113
 C          2.6978341193        0.2154221936       -0.8787874525
 C          3.8858520274       -0.6499202010       -0.9076996356
 C          4.8723347430       -0.4472416597       -0.0153431981
 C          6.1067742732       -1.2921998710        0.1048431873
 C          5.8961831618       -2.4422598577        1.0999086653
 C          4.6098219945       -3.2346636335        0.8661625585
 H          4.5832431044       -4.0364680773        1.6072637008
 H          3.7511610920       -2.5881690079        1.0619243033
 C          4.4800561375       -3.8345478806       -0.5408453546
 H          5.4577713073       -3.8622047352       -1.0232790344
 H          4.1336843778       -4.8662301059       -0.4507192412
 C          3.4866708206       -3.1091393722       -1.4504658426
 H          2.5303836247       -2.9951752090       -0.9334248387
 H          3.3111150294       -3.7351245376       -2.3293785253
 C          3.9285128789       -1.7288559648       -1.9528164848
 H          4.9239441192       -1.7988545483       -2.3959167834
 H          3.2256126014       -1.4184307431       -2.7314148036
 H          6.7551538572       -3.1129538572        1.0387722503
 H          5.8623085014       -2.0248504808        2.1089695751
 H          6.3670506465       -1.6882182358       -0.8747378832
 H          6.9227576809       -0.6608069884        0.4603812246
 O          4.8332299909        0.5319975571        0.9247688767
 C          3.7358567670        1.3699545494        1.0334270991
 O          3.8142496434        2.2066392862        1.9560490720
 H         -0.9253910187        2.1691503448       -1.0849192353
 C         -0.9047824779        1.4544081463       -0.2770663351
 C          0.2377321015        1.3129765817        0.4929588084
 C          0.2258547102        0.3877518203        1.5341192198
 C         -0.8915568348       -0.3850404930        1.7813734332
 C         -2.0244733013       -0.2542485456        0.9964317872
 C         -2.0294240033        0.6735508074       -0.0347227234
 N         -3.1705443413        0.8068606290       -0.8402742570
 S         -4.6805764022        0.8951924833       -0.1196368980
 O         -5.5159951167        1.5797980561       -1.0819783920
 O         -4.6050965224        1.4837415830        1.1973756050
 C         -5.2051581077       -0.8023478582       -0.0024202878
 C         -5.6224150629       -1.3110248647        1.2118958498
 C         -6.0400689439       -2.6312242301        1.2779628033
 C         -6.0344685899       -3.4146924868        0.1341750970
 C         -5.6148730591       -2.8879350072       -1.0783829238
 C         -5.1971050436       -1.5687499086       -1.1512846509
 H         -4.8663371695       -1.1228876459       -2.0744570403
 H         -5.6111949408       -3.5005581767       -1.9655860269
 H         -6.3590876077       -4.4418943453        0.1878375824
 H         -6.3668913124       -3.0424309226        2.2195690428
 H         -5.6048565488       -0.6664324319        2.0764109142
 H         -3.0752774777        1.4802474270       -1.5860820735
 H         -2.8978103155       -0.8581759638        1.1804160174
 H         -0.8816086591       -1.1003282152        2.5899942511
 H          1.1119147795        0.2834859425        2.1464426445
 C          1.4870967795        2.1298786013        0.2674530312
 H          1.6660727285        2.7308918129        1.1710273892
 C          1.4095665974        3.0590861804       -0.9256474975
 C          0.7465822829        4.3969135190       -0.7971620729
 C          2.2371919462        4.3075728342       -0.9240479086
 H          2.6967768791        4.6231455269       -1.8486489066
 H          2.8402057660        4.5012500729       -0.0487825190
 H          0.1844642910        4.7792332691       -1.6362452779
 H          0.3339793206        4.6604754373        0.1652290472
 H          1.3135067215        2.5258992480       -1.8646373989
 O          1.7695690799        0.0610006906       -1.7144504156
