  62
        -98.94248942
 C         -1.9782191785       -1.1329925960       -0.1531072547
 C         -1.0791539178       -1.8255620918       -0.9934644795
 C         -0.0526958889       -2.6423100186       -0.3270602072
 C         -0.0229665462       -2.6786521843        1.0169258848
 C          1.0025410214       -3.3552025787        1.8841150951
 C          2.1191898053       -2.3627467126        2.2556942991
 C          3.2801380862       -2.3013666534        1.2640854075
 H          3.9342896297       -1.4875727935        1.5861519706
 H          3.8528466132       -3.2300728228        1.3183403314
 C          2.8713961377       -2.0529801679       -0.1896936788
 H          2.0912981097       -1.2887330196       -0.2142035433
 H          3.7355606039       -1.6462928746       -0.7183652717
 C          2.3976546070       -3.3231766594       -0.9111792976
 H          2.6698437398       -4.1927873045       -0.3131465230
 H          2.9306839655       -3.4176052049       -1.8591234793
 C          0.8975214920       -3.3718353551       -1.2379106752
 H          0.5804345026       -4.4179537063       -1.3035274104
 H          0.7261736717       -2.9289672335       -2.2239089357
 H          2.5200571763       -2.6330619279        3.2352447619
 H          1.6703393576       -1.3693035907        2.3462002735
 H          0.4889120345       -3.6611721261        2.7979239211
 H          1.4048774036       -4.2372116252        1.3938058486
 O         -0.9319910162       -2.0266420173        1.7912009466
 C         -1.8984098139       -1.2079608832        1.2378167623
 O         -2.6270442904       -0.6306750157        2.0687778243
 O         -1.1178930327       -1.7445198001       -2.2532056217
 C         -2.9729661894       -0.1730450629       -0.7797479517
 C         -2.6394955518        1.2345264176       -0.3449121783
 C         -3.5960005071        2.1876408026       -0.0225446795
 C         -3.2091458340        3.4472877880        0.4037876059
 C         -1.8724807548        3.7731446807        0.5376464405
 C         -0.9058296798        2.8297301340        0.2040720808
 C         -1.2979498483        1.5883750771       -0.2652607013
 H         -0.5477852880        0.8535790879       -0.5168539791
 N          0.4630486894        3.1245533444        0.3207412288
 S          1.5642302945        2.0117458924        0.9283350852
 O          0.9136747069        0.8210980584        1.4176457717
 O          2.3655438279        2.7413405063        1.8908997886
 C          2.6027658093        1.6068506242       -0.4638877143
 C          3.9422739993        1.3734857119       -0.2184625958
 C          4.7700262831        1.0182056242       -1.2712175978
 C          4.2458560617        0.8985343072       -2.5491570375
 C          2.9008811918        1.1398211851       -2.7811190014
 C          2.0686777333        1.4991650231       -1.7318376101
 H          1.0203228366        1.6933371327       -1.8913434344
 H          2.4912263479        1.0472278232       -3.7742386680
 H          4.8875387890        0.6169384452       -3.3690194856
 H          5.8169184667        0.8339027940       -1.0909108917
 H          4.3064553749        1.4823446547        0.7902134118
 H          0.6564093334        4.0381168845        0.7048695706
 H         -1.5745216059        4.7449316706        0.9014932966
 H         -3.9612520584        4.1793537157        0.6564632804
 H         -4.6430331929        1.9415094318       -0.0912780958
 H         -2.8079815120       -0.2479961953       -1.8656011023
 C         -4.3993157644       -0.5772522377       -0.4750334787
 C         -5.4965403588       -0.2771220050       -1.4513202629
 C         -5.0212538010       -1.6860834028       -1.2684319026
 H         -5.6627336913       -2.3879938135       -0.7572423237
 H         -4.4225294679       -2.1310668238       -2.0497481219
 H         -6.4701617806       -0.0128976915       -1.0668405583
 H         -5.2284153278        0.2314280278       -2.3650292171
 H         -4.6256050462       -0.5315646502        0.5843026488
