  62
        -98.93727865
 C         -0.6226839506        1.7815095511        0.7462650584
 C         -1.7421045036        2.1009493542       -0.0637295513
 C         -2.9446928913        1.2701330669        0.1000972476
 C         -2.9293393890        0.2657738284        0.9924889613
 C         -4.0484279285       -0.6748305039        1.3624844830
 C         -4.8840962482       -1.2655447624        0.2177671428
 C         -4.1241287881       -1.4825549394       -1.0987132009
 H         -3.0518165173       -1.3682861326       -0.9340139205
 H         -4.2990225623       -2.5031964956       -1.4431977259
 C         -4.5706254925       -0.5309527745       -2.2114113509
 H         -5.6597550843       -0.4504654144       -2.1910008638
 H         -4.2935615043       -0.9624312558       -3.1761762324
 C         -3.9654260758        0.8710816841       -2.1539683093
 H         -2.9008691691        0.8272111710       -2.4002343059
 H         -4.4468666467        1.4785421945       -2.9242859827
 C         -4.1000697622        1.5926245573       -0.8031990103
 H         -4.0464604926        2.6686728610       -0.9899628460
 H         -5.0539236463        1.3696999216       -0.3308564226
 H         -5.7443678702       -0.6248708966        0.0283199567
 H         -5.2781448497       -2.2191084200        0.5730037933
 H         -3.5676059190       -1.4789791119        1.9230968563
 H         -4.7132311271       -0.1519880383        2.0563670630
 O         -1.8343404905       -0.0092768823        1.7521158601
 C         -0.6564760666        0.7228767725        1.6539683044
 O          0.2359664506        0.3252283987        2.4233290356
 H          1.3644089833        0.0629974812        0.1577887476
 C          1.7722605466        0.7191229024       -0.5954112143
 C          1.4866940722        2.0763410260       -0.5484833396
 C          2.0177631858        2.9071556200       -1.5285452520
 C          2.8274238475        2.3904171571       -2.5242287098
 C          3.1290078768        1.0411905770       -2.5542962346
 C          2.5957453386        0.1994059439       -1.5837692940
 N          2.8542927635       -1.1758481432       -1.6108873317
 S          2.9172029603       -2.0681825837       -0.1967300483
 O          3.5211199131       -1.3180163198        0.8782973685
 O          3.6134749228       -3.2795006195       -0.5826222721
 C          1.2244137782       -2.4862758447        0.1503973601
 C          0.4154243735       -2.8523779148       -0.9078441622
 C         -0.8855028879       -3.2489429169       -0.6486499275
 C         -1.3516704430       -3.2773282188        0.6574230406
 C         -0.5267362719       -2.9079045686        1.7070581961
 C          0.7772887812       -2.5098200677        1.4551642441
 H          1.4394179475       -2.1921210039        2.2446282309
 H         -0.8900451389       -2.9147533726        2.7222503065
 H         -2.3659869457       -3.5866579311        0.8553890386
 H         -1.5321063959       -3.5346089347       -1.4629308013
 H          0.8125247900       -2.8180399240       -1.9088975639
 H          3.5350248952       -1.4793696685       -2.2913332096
 H          3.7664197804        0.6364660095       -3.3254924565
 H          3.2332689811        3.0445580280       -3.2808052658
 H          1.7815063944        3.9609249774       -1.5122045769
 C          0.6155246065        2.6362061122        0.5476172548
 H          0.2357439741        3.6095840725        0.1960506733
 C          1.3943558336        2.8957188206        1.8286054611
 C          2.6492491129        2.1703825280        2.1994417040
 C          2.7144171359        3.6077354498        1.7834532718
 H          2.9250128166        4.3537748732        2.5348155371
 H          3.1314783847        3.8268999321        0.8121230519
 H          3.0286172896        1.4115641260        1.5318332855
 H          2.7895042288        1.9212851586        3.2405393699
 H          0.7332446316        3.1505536430        2.6514819664
 O         -1.7402985468        3.0600750297       -0.8818101046
