  62
        -98.94186805
 C         -2.7738035598       -0.2183662887       -0.2282292541
 C         -2.0386546514        0.5925544579       -1.1269309940
 C         -1.9852580094        2.0265289205       -0.8074040199
 C         -2.6317785352        2.4933529806        0.2745373389
 C         -2.6216013117        3.9209963192        0.7363315965
 C         -1.4960619518        4.1792241954        1.7472218776
 C         -0.1241818934        3.6696012522        1.3036429905
 H          0.5933684265        3.9625676482        2.0738661531
 H         -0.1264944559        2.5765119345        1.2797134637
 C          0.3465978754        4.1987429086       -0.0579833484
 H          1.3976986291        4.4824384655        0.0268364593
 H         -0.2136305319        5.0963834191       -0.3240079092
 C          0.2492179067        3.1773858855       -1.1929472852
 H          0.8438423705        3.5425633636       -2.0350772003
 H          0.6839893902        2.2317082869       -0.8569851550
 C         -1.1669548341        2.9005580017       -1.7152421901
 H         -1.6797652202        3.8440750822       -1.9128764973
 H         -1.0766194355        2.3534515792       -2.6581202488
 H         -1.7538434599        3.6855875769        2.6872315453
 H         -1.4418585825        5.2540540185        1.9317374995
 H         -2.5055690942        4.5741999826       -0.1263706524
 H         -3.5798071190        4.1321884889        1.2145368772
 O         -3.3559324756        1.6935564752        1.0984522931
 C         -3.4170363091        0.3283957506        0.8872672277
 O         -4.0825399816       -0.2892285341        1.7435183451
 H         -0.3194363531       -1.3858352233       -1.1685942882
 C         -0.3687425332       -2.0120182992       -0.2901924888
 C         -1.6060340193       -2.3311105941        0.2505122069
 C         -1.6434707019       -3.1283280578        1.3881101649
 C         -0.4720261019       -3.5748243064        1.9766249275
 C          0.7601915430       -3.2161518181        1.4583600158
 C          0.8034027790       -2.4252620051        0.3194212486
 N          2.0595975913       -1.9704025007       -0.1721072671
 S          2.5656049604       -0.6475371318        0.7664587413
 O          2.8655897037       -1.1381800520        2.0881887789
 O          1.5943924905        0.4221078606        0.6907809592
 C          4.0726938498       -0.1794099796       -0.0620577344
 C          4.0745777855        0.9101066500       -0.9109130648
 C          5.2473127246        1.2421353143       -1.5714448694
 C          6.3889033452        0.4799276927       -1.3758094294
 C          6.3700459746       -0.6128317671       -0.5214793277
 C          5.2017719435       -0.9490269078        0.1431216669
 H          5.1399265275       -1.7831306509        0.8219569206
 H          7.2603269943       -1.2019283613       -0.3716002642
 H          7.2995253950        0.7408003492       -1.8915663922
 H          5.2641142115        2.0921613941       -2.2344595318
 H          3.1649069727        1.4776239320       -1.0294870962
 H          1.9531295863       -1.6290536991       -1.1212869667
 H          1.6801102403       -3.5119784716        1.9352870125
 H         -0.5192909650       -4.1896576407        2.8627924076
 H         -2.5990592344       -3.3719013628        1.8298577556
 C         -2.8616449446       -1.7356290409       -0.3411896093
 H         -3.7076808758       -2.0352951502        0.2916255255
 C         -3.1143565362       -2.2341906373       -1.7495072585
 C         -3.6939172515       -3.6025833504       -1.9390339117
 C         -4.5250073633       -2.3895012677       -2.2283814020
 H         -4.7483858162       -2.1467706944       -3.2562563315
 H         -5.3170422056       -2.1366679605       -1.5383310752
 H         -3.9250684907       -4.1748540309       -1.0533267598
 H         -3.3460728241       -4.1976366498       -2.7692626402
 H         -2.3819727559       -1.8913886055       -2.4677230834
 O         -1.4445788149        0.1679796262       -2.1557554395
