  62
        -98.94883904
 C         -1.9272229013       -0.6657539084       -0.3056508774
 C         -1.1184106451       -1.4810505428       -1.1309832095
 C         -0.5692548779       -2.6914478971       -0.5039718283
 C         -0.8279336288       -2.9315759010        0.7946956848
 C         -0.3179198031       -4.1141578015        1.5661340714
 C          1.0243378797       -3.8093596740        2.2436140054
 C          2.0701992388       -3.2146971145        1.3006123299
 H          1.7495991169       -2.2116222291        1.0079019485
 H          2.9910227842       -3.0892972835        1.8754366363
 C          2.3538484267       -4.0649462916        0.0542266483
 H          3.4345188113       -4.1111495004       -0.0964200483
 H          2.0054539685       -5.0855724679        0.2178379646
 C          1.7490215413       -3.5207734865       -1.2405886618
 H          2.1846266712       -4.0753577676       -2.0762343484
 H          2.0379193934       -2.4745591345       -1.3566542073
 C          0.2245767393       -3.6280075042       -1.3735301692
 H         -0.0840871690       -4.6605040367       -1.1943035930
 H         -0.0358445060       -3.3670072516       -2.4038374999
 H          1.4072513497       -4.7335616091        2.6816915102
 H          0.8521532528       -3.0931184877        3.0507368547
 H         -1.0529779420       -4.3622622679        2.3340969231
 H         -0.2112607122       -4.9620942672        0.8915886441
 O         -1.5771091378       -2.1053864773        1.5672817152
 C         -2.1390002580       -0.9516371552        1.0432862116
 O         -2.8071498000       -0.2892569787        1.8606506046
 O         -0.8727229017       -1.2151604836       -2.3393650234
 C         -2.5473267077        0.5959326800       -0.8836111178
 C         -2.0726639857        1.7871844810       -0.0887305402
 C         -2.9103432484        2.7597617210        0.4388951108
 C         -2.3879968409        3.7766054146        1.2206472642
 C         -1.0364815411        3.8345340368        1.5055280950
 C         -0.1862814439        2.8753530305        0.9640493757
 C         -0.7074451532        1.8891980270        0.1458694369
 H         -0.0500634547        1.1462318926       -0.2749799176
 N          1.1908436286        2.9027736417        1.2186273125
 S          2.1248279126        1.5139121366        1.2042978920
 O          1.3754093435        0.3360591128        1.5707454135
 O          3.2534442849        1.8427496361        2.0502903674
 C          2.6878793800        1.4183165768       -0.4818894548
 C          2.2323585787        0.4169748494       -1.3136739185
 C          2.6699116020        0.3788121560       -2.6280970513
 C          3.5578331663        1.3397706494       -3.0853012126
 C          4.0145893165        2.3370435351       -2.2359574883
 C          3.5762886228        2.3802587652       -0.9227326716
 H          3.9116494628        3.1322371812       -0.2281525356
 H          4.7075681198        3.0807196947       -2.5950181890
 H          3.8951778517        1.3084933575       -4.1092564278
 H          2.3016012732       -0.3959478641       -3.2821171279
 H          1.5362621911       -0.3141248566       -0.9299479153
 H          1.4870045033        3.5585405935        1.9255810205
 H         -0.6398684494        4.6080723048        2.1453477612
 H         -3.0488005911        4.5235326110        1.6342303623
 H         -3.9714993052        2.7135390905        0.2571149800
 H         -2.1537309252        0.6772961558       -1.9076960563
 C         -4.0543684272        0.4668847430       -0.9460481173
 C         -4.8351689793        1.2266027102       -1.9755103828
 C         -4.6737163392       -0.2575950331       -2.1021777123
 H         -5.5287813720       -0.8897825018       -1.9153937609
 H         -4.0069379360       -0.6391254611       -2.8614745488
 H         -5.8057320356        1.6136018838       -1.7041889885
 H         -4.2828809718        1.8559632888       -2.6565764870
 H         -4.4986327652        0.3205909040        0.0323825961
