  62
        -98.94258722
 C         -0.7523827888       -1.3798410255        0.6618758156
 C         -1.2521174863       -1.0540832849       -0.6199750526
 C         -2.1318677053        0.1288039435       -0.7051405239
 C         -2.4409282643        0.7900474052        0.4256380259
 C         -3.3576821366        1.9745946981        0.5778691101
 C         -4.8453265696        1.5902076429        0.4829150175
 C         -5.1840977353        0.5592813271       -0.5914295301
 H         -4.5732190563       -0.3324969472       -0.4392131086
 H         -6.2278041497        0.2651581013       -0.4528280066
 C         -5.0243524319        1.0410272511       -2.0313795138
 H         -5.3256067209        0.2200412952       -2.6869689273
 H         -5.7074727754        1.8752819163       -2.2076969422
 C         -3.6164866831        1.4820052287       -2.4341860642
 H         -3.6124856840        1.6163460495       -3.5202103663
 H         -3.3768211781        2.4518224491       -2.0056274773
 C         -2.5110068580        0.4767280484       -2.1226759949
 H         -2.7435739884       -0.4757534366       -2.6124735747
 H         -1.5786923408        0.8256528890       -2.5878717021
 H         -5.4268693423        2.4979708603        0.3148090760
 H         -5.1440780056        1.1705942783        1.4462808460
 H         -3.1730467745        2.3944441139        1.5690409785
 H         -3.1018962745        2.7346409456       -0.1556647492
 O         -1.9677376775        0.4124156467        1.6484045028
 C         -1.0839081548       -0.6399095993        1.7940131154
 O         -0.6745167840       -0.8167236133        2.9594978486
 H          1.4366916707       -0.2019318237        0.3313999521
 C          1.9111313612       -1.0032840170       -0.2161903823
 C          1.4218207433       -2.2965104819       -0.0856338987
 C          2.0557579815       -3.3171511141       -0.7826600222
 C          3.1288281352       -3.0362202947       -1.6107152565
 C          3.5798769415       -1.7393848029       -1.7746115497
 C          2.9598097203       -0.7125038683       -1.0719995224
 N          3.3891494276        0.6183420071       -1.1930733317
 S          2.2592309650        1.8536316947       -1.1830826127
 O          1.0253162376        1.4733962492       -1.8287792191
 O          2.9600440228        2.9757482242       -1.7743132377
 C          1.9849376131        2.1968043920        0.5409150654
 C          0.6924115723        2.3646101319        0.9951477533
 C          0.4821411700        2.6450902485        2.3354435881
 C          1.5655107332        2.7570198860        3.1926468404
 C          2.8588136318        2.5947621350        2.7190554507
 C          3.0752943631        2.3131181164        1.3798503358
 H          4.0643565794        2.1762866953        0.9756216384
 H          3.6971288910        2.6819415779        3.3913280586
 H          1.3969883877        2.9676093134        4.2368983252
 H         -0.5244817636        2.7572843305        2.7053676816
 H         -0.1227447627        2.2497132937        0.2962536841
 H          4.1078595345        0.7748500824       -1.8850432201
 H          4.3996016804       -1.5196937083       -2.4415787220
 H          3.6099103318       -3.8373975247       -2.1510868583
 H          1.7031871630       -4.3310669081       -0.6867353906
 C          0.2335869230       -2.5222754277        0.8188618570
 H          0.5811487494       -2.4843627972        1.8621840841
 C         -0.4537036096       -3.8516994693        0.5814772223
 C         -0.0022915472       -5.0811771470        1.3098507737
 C         -1.3021418530       -4.4302402157        1.6724412716
 H         -2.2228495968       -4.9253141470        1.4024939055
 H         -1.3591923257       -3.8770626566        2.5987530848
 H         -0.0333102932       -6.0278914441        0.7917102205
 H          0.8220440611       -4.9803848284        1.9994467645
 H         -0.8066582014       -3.9577047366       -0.4381222518
 O         -0.9831097758       -1.7227195907       -1.6525691552
