  62
        -98.93588496
 C         -2.0921570496       -1.0032391307        0.5534536797
 C         -2.2998299699       -0.2382422509       -0.6156560204
 C         -2.6037898503        1.1929546490       -0.4237871306
 C         -2.6171122704        1.6948863892        0.8237680694
 C         -2.8881689209        3.1109107392        1.2654228292
 C         -4.0996262111        3.8029138387        0.6200820491
 C         -3.7134888414        4.9330316887       -0.3348181410
 H         -4.5558264816        5.6232956084       -0.4183217811
 H         -2.8792970816        5.4861692790        0.1014363289
 C         -3.3407230513        4.4862501086       -1.7472214710
 H         -4.2414678612        4.1589299983       -2.2709337209
 H         -2.9545884215        5.3592357687       -2.2784415811
 C         -2.3028862109        3.3642685189       -1.8321125708
 H         -1.5113625010        3.5093329193       -1.0975726009
 H         -1.8328649210        3.4201447890       -2.8164636508
 C         -2.9005596905        1.9573952888       -1.6854981407
 H         -3.9859439705        1.9982579884       -1.8205770907
 H         -2.5212698203        1.3146554188       -2.4863101206
 H         -4.7139281208        3.0657173885        0.1051445992
 H         -4.7067124312        4.2284268986        1.4206251791
 H         -3.0256276608        3.0501035293        2.3474199292
 H         -1.9855430210        3.7037903494        1.0987319791
 O         -2.3494881002        0.9284901594        1.9216057195
 C         -2.0887039298       -0.4247140305        1.8202261296
 O         -1.8813393296       -0.9953168803        2.9118676497
 H          0.5294392505       -1.2756181499        0.8209877698
 C          0.5804185107       -1.9572014400       -0.0171949302
 C         -0.5444363591       -2.6940033303       -0.3689382101
 C         -0.4570682489       -3.5726650905       -1.4400644099
 C          0.7218103412       -3.6824788602       -2.1576480899
 C          1.8288415910       -2.9256683898       -1.8241225400
 C          1.7581544707       -2.0593149497       -0.7373558301
 N          2.8840820005       -1.3143335293       -0.3455003202
 S          2.6738116800        0.1795809707        0.4061322296
 O          2.3602917001       -0.0378776992        1.7970118396
 O          1.7494876198        1.0031572103       -0.3419836605
 C          4.3339653498        0.8163321912        0.2647897895
 C          4.6313421595        1.7546577212       -0.7048479506
 C          5.9367076994        2.2071491615       -0.8215766407
 C          6.9172163896        1.7130520219        0.0252868494
 C          6.6034050398        0.7711682620        0.9942058995
 C          5.3003535600        0.3164188816        1.1176721396
 H          5.0058632602       -0.4068866284        1.8600701396
 H          7.3676070700        0.3904602723        1.6523528795
 H          7.9321003195        2.0656371522       -0.0687961107
 H          6.1828446692        2.9409472815       -1.5720041808
 H          3.8345466394        2.1122891508       -1.3372170407
 H          3.5936438705       -1.2691425792       -1.0643277902
 H          2.7422853710       -3.0028989196       -2.3938090100
 H          0.7744119414       -4.3599725603       -2.9963787198
 H         -1.3148090187       -4.1601943408       -1.7227295299
 C         -1.7971778392       -2.4887949006        0.4477114899
 H         -1.5928410691       -2.8295339304        1.4738541300
 C         -3.0048520490       -3.2310339611       -0.0846160100
 C         -3.2267740685       -4.6672707711        0.2800759802
 C         -4.1012276488       -3.6013022713        0.8667850201
 H         -5.1238945589       -3.5261259216        0.5291392000
 H         -3.9640531289       -3.3366370911        1.9054712100
 H         -3.6537374483       -5.3273990913       -0.4596098297
 H         -2.4990830984       -5.1361135508        0.9250315803
 H         -3.2928183291       -2.8996585613       -1.0755259200
 O         -2.2473224497       -0.7274240010       -1.7755802103
