  62
        -98.94213400
 C         -2.2598941071       -0.8084097400        0.1213285088
 C         -1.6418144621       -0.0215718916       -0.8779339759
 C         -1.9983515638        1.4080259488       -0.9054029868
 C         -2.8006935719        1.9023715591        0.0527690687
 C         -3.3573484493        3.2962479766        0.2186098942
 C         -2.4797115604        4.4861233141       -0.1768909184
 C         -0.9994435302        4.3498145655        0.2075878167
 H         -0.6926499351        5.2338095184        0.7702444118
 H         -0.8533767770        3.4842676191        0.8578563783
 C         -0.0776797139        4.2115396492       -1.0049971022
 H         -0.3915721712        4.9164847815       -1.7785368826
 H          0.9382325926        4.4784223972       -0.7032349718
 C         -0.0187831968        2.8021078899       -1.5879013003
 H          0.4247203991        2.1341208445       -0.8456636095
 H          0.6471927127        2.8175830771       -2.4541977522
 C         -1.3736705293        2.2094831168       -2.0125752015
 H         -2.0458200558        2.9836352069       -2.3759630752
 H         -1.1916195456        1.5003685126       -2.8248279763
 H         -2.5582986155        4.6595774342       -1.2489392455
 H         -2.9050197634        5.3627567820        0.3155981814
 H         -4.2972868030        3.3459345626       -0.3407951130
 H         -3.6144725493        3.3729345465        1.2786134694
 O         -3.2954758081        1.1214743564        1.0584980190
 C         -3.0437427988       -0.2364100315        1.1188366304
 O         -3.5628665298       -0.8160613986        2.0974732039
 H         -0.3750783866       -1.1274049578        1.9108650565
 C          0.1793650329       -1.7871517775        1.2536813054
 C         -0.5056909404       -2.5245860598        0.2953801355
 C          0.2223381288       -3.3703676718       -0.5309609560
 C          1.6019338338       -3.4371156126       -0.4299880826
 C          2.2837415782       -2.6475633282        0.4785260869
 C          1.5597874500       -1.8220550755        1.3276266839
 N          2.2683496128       -0.9337942986        2.1933230101
 S          2.2838672633        0.6164239630        1.5131005086
 O          3.0579395306        1.4365763977        2.4217033851
 O          0.9414517347        1.0917121107        1.2524100330
 C          3.1822231881        0.3503485633        0.0040547853
 C          2.5076423967       -0.0057734053       -1.1472262692
 C          3.2435692240       -0.2579832546       -2.2951450203
 C          4.6257560321       -0.1560533886       -2.2721807539
 C          5.2864164119        0.1999349969       -1.1056285630
 C          4.5594883991        0.4530590177        0.0458637390
 H          5.0243356192        0.7348625868        0.9763788400
 H          6.3615485276        0.2781072217       -1.0895083406
 H          5.1905610342       -0.3560350151       -3.1691494887
 H          2.7240311112       -0.5380545294       -3.1973218131
 H          1.4310267013       -0.0866911683       -1.1442604648
 H          1.8402674992       -0.8607202821        3.1076979880
 H          3.3598445569       -2.6551126379        0.5374025710
 H          2.1538922823       -4.0915667637       -1.0864773582
 H         -0.2906342250       -3.9625705845       -1.2709129910
 C         -1.9935166058       -2.3038996115        0.1856490210
 H         -2.4708931789       -2.6594837653        1.1104859474
 C         -2.6276796947       -3.0026750749       -0.9982996919
 C         -3.0462747276       -4.4375333343       -0.8910180095
 C         -4.0822257873       -3.3557884185       -0.9369259878
 H         -4.6774856622       -3.2460923254       -1.8308326274
 H         -4.6131300181       -3.1118607670       -0.0278849072
 H         -2.8793943215       -4.9379273928        0.0508139439
 H         -2.9349536514       -5.0738278691       -1.7557811448
 H         -2.2390973678       -2.6492542549       -1.9462759353
 O         -0.8475909129       -0.4953560454       -1.7314312484
