  62
        -98.94108861
 C         -2.1996577774       -1.0150048726        0.6646875306
 C         -2.1802837104       -0.1140648025       -0.4294486080
 C         -3.0476090142        1.0661731487       -0.2963055696
 C         -3.7369420002        1.2728867611        0.8392208668
 C         -4.6484002053        2.4348382875        1.1268425653
 C         -6.0716391388        2.2597520538        0.5792671991
 C         -6.2055305402        2.3854717218       -0.9389407370
 H         -7.2719184551        2.4604753315       -1.1605511158
 H         -5.7384383867        3.3143488912       -1.2677686802
 C         -5.6200686532        1.2058272677       -1.7277939588
 H         -5.4836780713        0.3523235872       -1.0596870058
 H         -6.3279070830        0.8969792812       -2.5001053719
 C         -4.2926774481        1.5054896793       -2.4247397589
 H         -4.4442984155        2.2698272493       -3.1900344047
 H         -3.9527981397        0.5940307180       -2.9231607374
 C         -3.1764715964        1.9741256296       -1.4817967679
 H         -2.2284442961        1.9456392705       -2.0255342107
 H         -3.3613527410        2.9986864896       -1.1588737470
 H         -6.4514865509        1.2867993070        0.8995647854
 H         -6.6946817203        3.0284149726        1.0422089681
 H         -4.7056184045        2.5234818104        2.2139840055
 H         -4.2122418121        3.3506326873        0.7264835067
 O         -3.6605298141        0.4273750845        1.9019550541
 C         -2.9059764475       -0.7336820489        1.8365523152
 O         -2.9312102010       -1.4161328783        2.8808708428
 H          0.2957077039       -0.5560786170        1.7235439401
 C          0.7526103557       -1.0507577821        0.8737029906
 C          0.0190414636       -2.0034101324        0.1764819464
 C          0.6087595747       -2.6217493730       -0.9172813660
 C          1.8951186959       -2.2842019668       -1.3009578248
 C          2.6202617373       -1.3345672213       -0.6054683354
 C          2.0382240814       -0.7065038260        0.4880631666
 N          2.7690764723        0.2537514597        1.2113448614
 S          3.5158572510        1.4939138645        0.3590424337
 O          3.6530242900        2.5721433882        1.3151677253
 O          2.8143563860        1.8064438236       -0.8641548415
 C          5.1311435362        0.8399320924       -0.0078064160
 C          5.5817672409        0.8098236051       -1.3129285504
 C          6.8456987490        0.3033796863       -1.5737366313
 C          7.6323011335       -0.1601000650       -0.5303841677
 C          7.1659534298       -0.1200369722        0.7753249037
 C          5.9041001107        0.3859802505        1.0430035945
 H          5.5056027885        0.4384519208        2.0423855382
 H          7.7804850955       -0.4813260121        1.5840659028
 H          8.6146819664       -0.5548578088       -0.7361210175
 H          7.2098501355        0.2720442563       -2.5880655692
 H          4.9317686928        1.1756049995       -2.0919875249
 H          2.2663886116        0.6286216303        2.0031246612
 H          3.6192106329       -1.0652952929       -0.9072420936
 H          2.3389266133       -2.7662494856       -2.1587101734
 H          0.0521955631       -3.3468558069       -1.4876079574
 C         -1.3812185532       -2.2952753694        0.6586621570
 H         -1.3129613903       -2.5916553146        1.7187935872
 C         -2.0450272642       -3.4538471277       -0.0707614534
 C         -3.5376651562       -3.5438071034       -0.1756805355
 C         -2.7146487551       -3.2882693168       -1.4005260450
 H         -2.6174602843       -4.0835721074       -2.1251421809
 H         -2.7251891653       -2.3014908196       -1.8348957049
 H         -4.0027516665       -4.5109586144       -0.0573912416
 H         -4.1178549063       -2.7286627384        0.2326744790
 H         -1.5210189360       -4.3895023185        0.0980100182
 O         -1.4861039608       -0.2724717842       -1.4656330691
