  62
        -98.94969271
 C         -0.7327422850       -1.7970201409       -0.1425897778
 C         -1.9123994965       -1.7167931157        0.6323804286
 C         -2.9451834428       -0.7961355986        0.1396910472
 C         -2.7205526026       -0.0999671754       -0.9896861255
 C         -3.6945181463        0.8618755042       -1.6081906760
 C         -3.4927035920        2.3004445580       -1.1124075133
 C         -3.3560168689        2.4255125328        0.4052340537
 H         -2.4374397943        1.9335872371        0.7381806858
 H         -3.2398025749        3.4878597360        0.6346284804
 C         -4.5456432174        1.8626492918        1.1952602815
 H         -4.8008802075        2.5688972631        1.9882164693
 H         -5.4162596993        1.7765667564        0.5433509551
 C         -4.2811469258        0.5152479139        1.8694492124
 H         -5.0842581487        0.3314969883        2.5885093604
 H         -3.3443340899        0.5684100205        2.4313322471
 C         -4.2173779296       -0.6978730379        0.9326273588
 H         -4.2536835311       -1.5991654444        1.5519310617
 H         -5.0882787582       -0.6993309432        0.2734437684
 H         -2.5905370101        2.7092793365       -1.5725231644
 H         -4.3411435811        2.9003907110       -1.4478654972
 H         -3.5548901600        0.8383785192       -2.6904343903
 H         -4.7061124269        0.5317664861       -1.3780458015
 O         -1.5661909914       -0.1892349656       -1.6981773489
 C         -0.5354503475       -1.0227124025       -1.2854966064
 O          0.4756382107       -0.9914618400       -2.0103317258
 O         -2.0990305733       -2.3952567603        1.6802201788
 C          0.3717776563       -2.7393427223        0.2928154489
 C          1.6580754167       -1.9960893987        0.5568747980
 C          2.9090142873       -2.5483665542        0.3060708215
 C          4.0609917755       -1.8409688740        0.6012417677
 C          3.9936896420       -0.5691662300        1.1400967459
 C          2.7479200869       -0.0090370789        1.3965258985
 C          1.5967017261       -0.7261508112        1.1143705768
 H          0.6371292609       -0.2794708712        1.3295249412
 N          2.6298302759        1.2798684588        1.9462009346
 S          1.4945235178        2.3232836924        1.3060107427
 O          1.9388893499        3.6357675192        1.7307980031
 O          0.1678397413        1.9509610117        1.7306206216
 C          1.6338795603        2.1998054405       -0.4672831279
 C          0.4786067910        2.1924179720       -1.2179516703
 C          0.5693780314        2.1298366030       -2.5982045226
 C          1.8142550315        2.0742968820       -3.2019842354
 C          2.9687461967        2.0892531253       -2.4353165739
 C          2.8824873650        2.1571347744       -1.0548522262
 H          3.7677043671        2.1744579804       -0.4404016731
 H          3.9360357582        2.0423939392       -2.9093307002
 H          1.8835062622        2.0126665476       -4.2765333226
 H         -0.3303671690        2.1047088341       -3.1919566672
 H         -0.4687689964        2.2179879845       -0.7037621294
 H          3.5069289944        1.7526538594        2.1107059604
 H          4.8925538300       -0.0160603173        1.3663150258
 H          5.0250457492       -2.2833038521        0.4021868938
 H          2.9807843605       -3.5355004913       -0.1201577576
 H          0.0291685835       -3.1685931244        1.2474135275
 C          0.5291182024       -3.8616856873       -0.7143969468
 C          0.9057373412       -5.2417761481       -0.2669226629
 C         -0.4899221730       -4.9602293223       -0.7331826607
 H         -0.8084854131       -5.3536634972       -1.6867432098
 H         -1.2778688304       -4.9146838798        0.0047223701
 H          1.5460346136       -5.8335394178       -0.9037302076
 H          1.0612124320       -5.4017349167        0.7894325461
 H          0.9039551323       -3.5103308876       -1.6691291856
