  62
        -98.94006862
 C         -2.4349603642       -0.9677605802        0.0331093199
 C         -3.6916152986       -0.9008579596        0.6893433061
 C         -4.7130015907       -0.0542938030        0.0599814398
 C         -4.4079750036        0.6115267719       -1.0683107633
 C         -5.3299893232        1.5545807428       -1.7841861759
 C         -5.1485853368        2.9942541163       -1.2831564566
 C         -5.1716985259        3.1258416155        0.2397195475
 H         -4.2988317724        2.6164422952        0.6546840526
 H         -5.0660207344        4.1868626803        0.4759840339
 C         -6.4419771292        2.5780175211        0.9052314971
 H         -6.7836579202        3.2970711586        1.6527370833
 H         -7.2359933772        2.4799279719        0.1640315555
 C         -6.2548154435        1.2418318120        1.6263528547
 H         -7.1426220498        1.0576190684        2.2372077308
 H         -5.3999738171        1.3075362179        2.3042143702
 C         -6.0597675246        0.0175141776        0.7230552569
 H         -6.1327630329       -0.8741058360        1.3527628167
 H         -6.8579252510       -0.0216481891       -0.0211670231
 H         -5.9376244591        3.6120547852       -1.7157638322
 H         -4.1874315731        3.3675465612       -1.6440178160
 H         -6.3587098206        1.2328745444       -1.6336979931
 H         -5.0994545129        1.5185487199       -2.8502586328
 O         -3.1911709585        0.5370168618       -1.6612511835
 C         -2.1682300017       -0.2399826329       -1.1281027568
 O         -1.1112242919       -0.1869818220       -1.7821615069
 O         -3.9461740426       -1.5205221443        1.7565826579
 C         -1.3599453715       -1.8248177445        0.6788337171
 C         -0.0746837593       -1.0470180175        0.7978997099
 C          0.0151427922       -0.0325973526        1.7468296070
 C          1.1704669295        0.7141686147        1.8765532794
 C          2.2598572723        0.4696007742        1.0588522769
 C          2.1803066471       -0.5379772632        0.1078141600
 C          1.0219804529       -1.2952961486       -0.0115147971
 H          0.9659889878       -2.0632220908       -0.7675253478
 N          3.2733407689       -0.7748138722       -0.7408661736
 S          4.8029259885       -0.9231304519       -0.0760822497
 O          5.5572005194       -1.7085001733       -1.0288344935
 O          4.7457672510       -1.4361536301        1.2735454487
 C          5.4363474054        0.7408853010       -0.0695660023
 C          5.9353589385        1.2837411708        1.0981398315
 C          6.4371346302        2.5758525092        1.0758106694
 C          6.4320275281        3.2976869465       -0.1078073065
 C          5.9289512097        2.7371857190       -1.2725574725
 C          5.4268702761        1.4458052466       -1.2571343343
 H          5.0287822744        0.9747651096       -2.1404746774
 H          5.9255713408        3.3017847000       -2.1910756935
 H          6.8221772720        4.3031442072       -0.1231187123
 H          6.8286423645        3.0134494960        1.9800972338
 H          5.9138134082        0.6871023314        1.9962183777
 H          3.1023448977       -1.4772441411       -1.4449495501
 H          3.1627483606        1.0512843507        1.1495972254
 H          1.2240979303        1.4971858516        2.6177400865
 H         -0.8385578412        0.1656703900        2.3807453596
 H         -1.7381349552       -2.0095790612        1.6979345950
 C         -1.1730837450       -3.1927916227        0.0395600515
 C         -2.3468264692       -3.9444912900       -0.5112523584
 C         -1.2855112946       -3.4313384971       -1.4353469440
 H         -0.6135135377       -4.1465627208       -1.8880482143
 H         -1.5136380919       -2.5881545703       -2.0679946727
 H         -2.4079129188       -5.0076230339       -0.3338226701
 H         -3.3040974040       -3.4439532393       -0.5059680421
 H         -0.4295497263       -3.7819468239        0.5692796590
