  62
        -98.93652253
 C         -1.2186783625       -0.5821067928        0.5865952562
 C         -2.0608642953       -0.6149266371       -0.5511221547
 C         -3.0707709890        0.4500469997       -0.6198448518
 C         -3.0945455865        1.4151545641        0.3164933719
 C         -4.0480863445        2.5783687677        0.3651893060
 C         -5.3993866598        2.2513139937        1.0159743522
 C         -6.3318612635        1.3770538206        0.1763265201
 H         -6.4368870366        1.8121320006       -0.8179907889
 H         -7.3142033267        1.4092805693        0.6517429482
 C         -5.8891882375       -0.0878796362        0.0557558302
 H         -6.7463361439       -0.7423922247        0.2287992031
 H         -5.1536989693       -0.3106870566        0.8320977119
 C         -5.3000335852       -0.4622058339       -1.3043128856
 H         -6.0683569211       -0.3686100841       -2.0748519262
 H         -4.9858925841       -1.5081681535       -1.2656914697
 C         -4.0867938529        0.3804614653       -1.7196230383
 H         -4.4041189623        1.3817672806       -2.0105279346
 H         -3.6112343710       -0.0995707290       -2.5784812525
 H         -5.9038945388        3.2003632016        1.2115748749
 H         -5.2150448598        1.7686638492        1.9785881060
 H         -4.2101853742        2.9610763598       -0.6430103137
 H         -3.5583895256        3.3563104138        0.9553820785
 O         -2.2107044957        1.4556460318        1.3501914533
 C         -1.2644113283        0.4574374119        1.5142523694
 O         -0.5254967798        0.6069001528        2.5107846842
 O         -1.9772379009       -1.4766953542       -1.4614497033
 C         -0.1646880289       -1.6635238601        0.7897792010
 C          0.7282881253       -1.6876517636       -0.4300335911
 C          1.0874898811       -2.7702217680       -1.2216151140
 C          1.9541306518       -2.6038434292       -2.2910382593
 C          2.5062601154       -1.3733275049       -2.5885977399
 C          2.1525385721       -0.2781185231       -1.8081549977
 C          1.2717670153       -0.4466066948       -0.7557729261
 H          0.9807686045        0.4201296093       -0.1823799575
 N          2.6780355474        0.9981986671       -2.0578077363
 S          2.9467430350        2.0435805749       -0.7814251467
 O          1.7060843825        2.6330522593       -0.3426478970
 O          3.9363958333        2.9713563873       -1.2888317472
 C          3.6747051320        1.0345069778        0.4983540925
 C          4.9243862581        0.5017938617        0.2439615584
 C          5.5116315176       -0.3206287292        1.1904851751
 C          4.8402034008       -0.5995916184        2.3715091991
 C          3.5908223536       -0.0519477342        2.6151433493
 C          2.9982525506        0.7748087423        1.6724959798
 H          2.0217232939        1.2041777789        1.8397895532
 H          3.0617368676       -0.2646783854        3.5306263174
 H          5.2921764826       -1.2451766675        3.1078411728
 H          6.4857987209       -0.7431377928        1.0047548360
 H          5.4191216154        0.7508202911       -0.6806831453
 H          3.4129680507        1.0353861253       -2.7481433026
 H          3.1875813057       -1.2543052042       -3.4166163407
 H          2.2093925332       -3.4589663199       -2.8984042753
 H          0.6896294433       -3.7516110404       -1.0407684308
 H          0.4675958296       -1.2955959533        1.6162324499
 C         -0.8544885561       -2.9110122981        1.3205789499
 C         -1.4560757205       -3.9978773524        0.4870371331
 C         -0.2645615765       -4.2893103411        1.3518428062
 H         -0.4247827516       -4.8775715361        2.2435769378
 H          0.6975497268       -4.4528207984        0.8960132641
 H         -2.4161889124       -4.3885181148        0.7930292696
 H         -1.3486903230       -3.9296806551       -0.5828393196
 H         -1.4269890508       -2.6343880295        2.2046140279
