  62
        -98.92924347
 C         -2.3521214241       -0.2628636259        0.9640280263
 C         -3.3998805609       -0.9646293476        0.3186609960
 C         -4.7196651333       -0.3018110349        0.3104049542
 C         -4.8679800602        0.8991371598        0.8923018722
 C         -6.1189484358        1.7301866902        1.0336952472
 C         -7.0446191731        1.8337437092       -0.1862936029
 C         -6.3325582685        1.8038545311       -1.5464686313
 H         -6.6770943456        2.6488474654       -2.1456172080
 H         -5.2562345803        1.9204663555       -1.4080322113
 C         -6.6098217351        0.5232164578       -2.3376038861
 H         -7.6714236474        0.2814696364       -2.2516840820
 H         -6.4017801991        0.7111848724       -3.3936744019
 C         -5.7846963508       -0.6945514065       -1.9239269668
 H         -4.7406598735       -0.5496857781       -2.2142631507
 H         -6.1549530503       -1.5577572633       -2.4821657966
 C         -5.8081671518       -1.0313269109       -0.4239258279
 H         -6.7860125074       -0.8360022736        0.0091328323
 H         -5.5839073244       -2.0958711277       -0.3153751181
 H         -7.7811562167        1.0321264488       -0.1538687325
 H         -7.5954954447        2.7702871765       -0.0841032400
 H         -6.6891079658        1.3430748473        1.8832953752
 H         -5.7659018009        2.7262397272        1.3113781500
 O         -3.8295298905        1.5415375276        1.5009014404
 C         -2.5642721976        0.9874970716        1.5482846641
 O         -1.7209499303        1.6937001401        2.1394245301
 H          1.5653502476        0.2121519201        1.0482714636
 C          1.1839126399        0.0436661712        0.0515921413
 C         -0.1006374337       -0.4470339963       -0.1275047462
 C         -0.5736613580       -0.6257213459       -1.4238318232
 C          0.2291724074       -0.3263616746       -2.5094265059
 C          1.5221280173        0.1315842269       -2.3264241774
 C          2.0020279064        0.3182694805       -1.0355814628
 N          3.3045199797        0.7877498876       -0.8074379694
 S          4.1399683261        0.1474664671        0.5152471970
 O          3.8647536476       -1.2663350323        0.6294431708
 O          3.8523865253        0.9491794949        1.6781897023
 C          5.8272436598        0.4102919080        0.0025895931
 C          6.4104789529        1.6428039269        0.2285317571
 C          7.7122033802        1.8552086111       -0.1970166643
 C          8.4044214835        0.8384803009       -0.8382032631
 C          7.8062270350       -0.3935367156       -1.0563882257
 C          6.5044248207       -0.6127514269       -0.6342088264
 H          6.0025666516       -1.5569049326       -0.7728990356
 H          8.3480132480       -1.1829554525       -1.5518182165
 H          9.4177638614        1.0063099675       -1.1671396290
 H          8.1816599430        2.8104993896       -0.0260742913
 H          5.8368626630        2.3987701151        0.7392192193
 H          3.8711214772        0.8101552977       -1.6441743610
 H          2.1526283980        0.3484946763       -3.1753065664
 H         -0.1504669322       -0.4682424447       -3.5101776176
 H         -1.5689847560       -1.0165214893       -1.5700275786
 C         -0.9352993546       -0.7986056973        1.0769828950
 H         -0.4959224204       -0.2711580821        1.9399570263
 C         -0.8834907668       -2.2883425776        1.3938790845
 C         -0.4551034286       -3.3319872853        0.4115648587
 C          0.4392543899       -2.9777633541        1.5592308276
 H          0.5517424742       -3.6861125453        2.3665572601
 H          1.3361148399       -2.4126603179        1.3461228815
 H         -0.9768616888       -4.2765213064        0.4275512499
 H         -0.1656228536       -3.0127479672       -0.5769882305
 H         -1.6679662021       -2.5766401382        2.0869972930
 O         -3.2693826971       -2.0900430632       -0.2245197339
