  62
        -98.94551172
 C         -1.8452351798       -1.3223401000       -0.2595292908
 C         -3.1382000897       -1.2306834305        0.3109416694
 C         -3.9652746700       -0.1128296705       -0.1559826602
 C         -3.4713711403        0.7496816699       -1.0630037499
 C         -4.1930044106        1.9390219600       -1.6366700795
 C         -4.1356286107        3.1925324297       -0.7522771190
 C         -5.0016622005        3.1429923891        0.5072067210
 H         -5.0427857207        4.1578766690        0.9077010814
 H         -6.0194891405        2.8594982190        0.2372588011
 C         -4.4757694902        2.2030528488        1.6010705107
 H         -3.4265396602        1.9684658291        1.4071866705
 H         -4.5168615502        2.7099310785        2.5677798008
 C         -5.2563251700        0.8963830286        1.7418707703
 H         -4.7755221297        0.2903626585        2.5140218401
 H         -6.2760418400        1.1106584683        2.0697653905
 C         -5.3221630799        0.0610271391        0.4569711500
 H         -6.0056555301        0.5211810792       -0.2563698297
 H         -5.7004345697       -0.9318183911        0.7131273798
 H         -3.0961892507        3.3753556498       -0.4709909591
 H         -4.4691134609        4.0353785398       -1.3620598387
 H         -3.7090894107        2.1670887404       -2.5887837094
 H         -5.2335819605        1.6773920198       -1.8313437094
 O         -2.2266815603        0.6213498704       -1.5938483801
 C         -1.3830232000       -0.4128033896       -1.2107651306
 O         -0.2795388301       -0.4090859292       -1.7872598507
 O         -3.5783126194       -2.0439990308        1.1663129491
 C         -0.9257596495       -2.4422380300        0.1970132687
 C          0.3175981805       -1.8237327899        0.7836108687
 C          0.2133714105       -1.0960982404        1.9669726690
 C          1.3123810604       -0.4511209503        2.5008301991
 C          2.5378300203       -0.5014278799        1.8577051089
 C          2.6480033703       -1.2160755194        0.6732483487
 C          1.5480191704       -1.8859491495        0.1520932286
 H          1.6543661404       -2.4322383491       -0.7714368416
 N          3.8744526103       -1.2464153890       -0.0097203915
 S          4.7684572400        0.1615619112       -0.1029624711
 O          5.5284315499        0.0446729718       -1.3287804712
 O          5.5535489201        0.3112564710        1.0987354089
 C          3.6114954097        1.5188335911       -0.2194610605
 C          2.5038237596        1.4140293011       -1.0364914604
 C          1.6332505794        2.4887471710       -1.1239991000
 C          1.8875271592        3.6491882908       -0.4104113796
 C          3.0090755393        3.7421601507        0.3995887503
 C          3.8773530595        2.6675112709        0.5000295098
 H          4.7530513096        2.6918443508        1.1283968397
 H          3.2065796992        4.6452680106        0.9544454206
 H          1.2069027691        4.4827906007       -0.4852613192
 H          0.7552555093        2.3948375210       -1.7438247499
 H          2.2946561997        0.5082430012       -1.5823702007
 H          3.8327787602       -1.7096311287       -0.9057381016
 H          3.4046699003        0.0023697302        2.2543589790
 H          1.2159304904        0.1047290294        3.4210421593
 H         -0.7485451595       -1.0363513907        2.4574839491
 H         -1.4700192893       -2.9605653504        0.9984751486
 C         -0.6623893694       -3.4224841196       -0.9261538417
 C         -0.1424342091       -4.7924803396       -0.6109795322
 C         -1.5550841292       -4.6156882097       -1.0784617320
 H         -1.8139665292       -4.9410038794       -2.0749935020
 H         -2.3527632391       -4.7357894101       -0.3603249719
 H          0.5688263209       -5.2443600892       -1.2858002124
 H          0.0220945911       -5.0352647899        0.4278378977
 H         -0.3201614996       -2.9430883292       -1.8364662816
