  62
        -98.94915907
 C         -2.0984882567       -0.3384174166        0.5524043778
 C         -1.3845044063        0.6200429275        1.3103527621
 C         -1.5809582462        2.0250944240        0.9362133658
 C         -2.3956271626        2.3215206695       -0.0920283276
 C         -2.6954670289        3.7092236512       -0.5797971672
 C         -1.7472825150        4.1376953877       -1.7068082383
 C         -0.2678492310        3.9106309305       -1.3955127082
 H         -0.0637315555        2.8377203761       -1.3542818231
 H          0.3052762168        4.3059188646       -2.2378880510
 C          0.2192414121        4.5667319215       -0.0960060206
 H          1.1835166147        5.0418559994       -0.2890169263
 H         -0.4749605159        5.3507107837        0.2104792406
 C          0.4305216610        3.5853052330        1.0583686007
 H          1.0045949067        2.7306930498        0.6904624887
 H          1.0294201421        4.0824096599        1.8265431837
 C         -0.8457533450        3.0651512192        1.7337814628
 H         -0.5558780813        2.5771296083        2.6691289055
 H         -1.5025167792        3.9040453161        1.9746780398
 H         -1.9966305603        3.5694263887       -2.6059943605
 H         -1.9183310264        5.1961156016       -1.9149197730
 H         -3.7197580385        3.7222936868       -0.9574732508
 H         -2.6186172114        4.4030171804        0.2554635647
 O         -3.0358786836        1.3743966134       -0.8229818049
 C         -2.8754527138        0.0237747393       -0.5475614834
 O         -3.4816828057       -0.7293023530       -1.3339891769
 O         -0.6224272512        0.3138343135        2.2682115259
 C         -1.9051686376       -1.8135212327        0.8736515002
 C         -1.0795103134       -2.4090387365       -0.2400637238
 C         -1.5217818029       -3.3987758597       -1.1057952437
 C         -0.7229241708       -3.8007504442       -2.1637406577
 C          0.5071330170       -3.2124135242       -2.3921200882
 C          0.9639564675       -2.2277411048       -1.5205558727
 C          0.1853946179       -1.8671686287       -0.4357386499
 H          0.5386338823       -1.1085982153        0.2433615037
 N          2.2030865942       -1.6050391844       -1.7173129125
 S          2.4820851313       -0.0161730816       -1.2543026280
 O          1.2629663547        0.7499062107       -1.1658741615
 O          3.4654355643        0.4594607522       -2.2064824420
 C          3.2807405235       -0.1884394349        0.3289287740
 C          4.5810949569       -0.6585460493        0.3171600432
 C          5.2499706511       -0.8255058772        1.5175941440
 C          4.6108784497       -0.5196910512        2.7103163757
 C          3.3086976690       -0.0468658729        2.7063700209
 C          2.6327926909        0.1215911184        1.5066806732
 H          1.6143600693        0.4796466778        1.4935571311
 H          2.8024860507        0.1911210931        3.6283142378
 H          5.1293572351       -0.6488310118        3.6473383957
 H          6.2637760211       -1.1921764672        1.5211885265
 H          5.0432513932       -0.8695804707       -0.6328424198
 H          2.6581791370       -1.8265131586       -2.5900901687
 H          1.1091248949       -3.5046449860       -3.2392414658
 H         -1.0760230062       -4.5683894402       -2.8359077075
 H         -2.4951473380       -3.8397331906       -0.9679812846
 H         -1.3049979624       -1.8354312237        1.7946383276
 C         -3.2181074016       -2.5193253108        1.1255126595
 C         -3.2321764425       -3.8023709013        1.9001468702
 C         -3.7751394547       -2.5491505807        2.5162229448
 H         -4.8431180936       -2.4560380342        2.6442012112
 H         -3.1995252288       -2.0694348288        3.2942597857
 H         -3.9286267962       -4.5734547596        1.6080863116
 H         -2.2862019974       -4.1761545967        2.2614579897
 H         -3.9221593284       -2.4054317370        0.3099581378
