  62
        -98.94005909
 C         -2.4986857157       -1.1800945113       -0.0448300268
 C         -2.5492942951        0.0000845267       -0.8250769336
 C         -3.8854566095        0.5841910444       -1.0126002839
 C         -4.9549822223       -0.0253188787       -0.4695949405
 C         -6.3593714696        0.5010976464       -0.5217709556
 C         -6.6607819700        1.3904903083        0.6930929628
 C         -5.5951190292        2.4531960057        0.9623207294
 H         -5.9280047377        3.0355942728        1.8241878657
 H         -4.6629187593        1.9605067146        1.2484954093
 C         -5.3255478121        3.3963753308       -0.2184048206
 H         -6.1535841691        3.3494269396       -0.9265740966
 H         -5.2762571404        4.4209228087        0.1561397205
 C         -4.0126119976        3.1289974530       -0.9567347837
 H         -3.1893273664        3.0824954644       -0.2390806004
 H         -3.8183435073        3.9735903905       -1.6231752269
 C         -3.9765801922        1.8547436742       -1.8097780906
 H         -3.0696474947        1.8894558590       -2.4205808112
 H         -4.8404650225        1.8321349670       -2.4770001361
 H         -6.7386126003        0.7532197251        1.5769787219
 H         -7.6269297562        1.8733468390        0.5359835155
 H         -6.4966159002        1.0653529703       -1.4419645500
 H         -7.0458453023       -0.3470417406       -0.5194830725
 O         -4.8687402408       -1.1760933029        0.2462897115
 C         -3.6424344682       -1.7712208405        0.4912991154
 O         -3.7008077184       -2.8033009352        1.1903255866
 O         -1.5351179804        0.5437668248       -1.3354849456
 C         -1.1610181663       -1.8367584425        0.2470138819
 C         -0.2604623938       -0.8470310373        0.9458725873
 C         -0.7193679159       -0.2434327465        2.1147719604
 C          0.0589691901        0.6783683001        2.7863573396
 C          1.3147274793        1.0134223581        2.3108492038
 C          1.7811234772        0.4193805602        1.1443070442
 C          0.9972808940       -0.5105864989        0.4738240025
 H          1.3846871550       -0.9566171643       -0.4263650415
 N          3.0344423531        0.7742182181        0.6222712191
 S          3.9367881108       -0.3556299954       -0.2427182047
 O          3.4287106504       -0.4431071551       -1.5882702095
 O          4.0175213575       -1.5985330886        0.4921671408
 C          5.5208503113        0.4633751211       -0.2539702782
 C          5.6938493007        1.5418420031       -1.1014817251
 C          6.9094320123        2.2068225063       -1.0995010342
 C          7.9265826583        1.7845119042       -0.2559128711
 C          7.7392316919        0.6991738174        0.5864821449
 C          6.5246053676        0.0309055906        0.5913960436
 H          6.3344921247       -0.8205906186        1.2247545385
 H          8.5330068723        0.3714294657        1.2382564194
 H          8.8719788540        2.3036471302       -0.2573291302
 H          7.0594784585        3.0497558276       -1.7546567028
 H          4.8780530405        1.8278683141       -1.7450257938
 H          3.6065003464        1.2863625708        1.2794489068
 H          1.9231890689        1.7362719622        2.8327089917
 H         -0.3117644002        1.1380785748        3.6903456312
 H         -1.7009882239       -0.5086058470        2.4853251023
 H         -1.3703200357       -2.6601783102        0.9459524787
 C         -0.5642433725       -2.4153090056       -1.0178145044
 C          0.4173011239       -3.5439604672       -0.9335047631
 C         -0.9663844857       -3.7907182677       -1.4536203389
 H         -1.0953371745       -3.9802333283       -2.5086199828
 H         -1.6621111152       -4.3263437763       -0.8239949618
 H          1.2446818887       -3.5587889542       -1.6274821845
 H          0.6674197603       -3.9155563052        0.0490760461
 H         -0.4151221824       -1.6696569321       -1.7909584683
