  62
        -98.94261513
 C         -1.4363841900       -1.0887241311        0.0139583935
 C         -2.7788449610       -1.5451224139        0.0288193500
 C         -3.7801616787       -0.6004190031        0.5417833146
 C         -3.3752032062        0.5927791268        1.0125802397
 C         -4.2897998394        1.6747331205        1.5076658726
 C         -4.6834509365        2.6294210318        0.3717271219
 C         -5.1722488560        1.9192712145       -0.8907909454
 H         -5.4499452665        2.6910494198       -1.6119906409
 H         -4.3441024231        1.3560311995       -1.3272669018
 C         -6.3632123268        0.9765244150       -0.6684021806
 H         -7.0947175836        1.1430754418       -1.4620486356
 H         -6.8523640273        1.2136407683        0.2771108158
 C         -6.0088764709       -0.5116138942       -0.6953481975
 H         -5.4395182338       -0.7363382793       -1.6011665480
 H         -6.9402520788       -1.0819422283       -0.7465067334
 C         -5.2192946915       -1.0317389176        0.5126859734
 H         -5.7275551622       -0.7447182600        1.4355238525
 H         -5.2037774537       -2.1241563178        0.4544148828
 H         -5.4629416803        3.2998667496        0.7382079230
 H         -3.8117325583        3.2326999781        0.1084888637
 H         -5.1796423730        1.2219183278        1.9406743974
 H         -3.7672340348        2.2395968413        2.2812611902
 O         -2.0730676204        0.9682335200        1.0488040322
 C         -1.0667524103        0.1479285635        0.5474898321
 O          0.0720204909        0.6337592117        0.6504894954
 H          2.1761410401       -1.0733826395       -0.9992666501
 C          2.0481195125       -1.5219805249       -0.0291775957
 C          0.8254605634       -2.0548074548        0.3462547584
 C          0.7025375916       -2.6198755088        1.6129827177
 C          1.7745406999       -2.6412800163        2.4835490408
 C          2.9898856690       -2.0941799281        2.1115104811
 C          3.1233736722       -1.5311093660        0.8480611731
 N          4.3489409830       -0.9878476140        0.4417561703
 S          4.4454289516        0.2703328499       -0.6467903634
 O          4.1396112695       -0.1984910446       -1.9762055093
 O          5.7896114363        0.7800023399       -0.4632228929
 C          3.2759309938        1.5168462375       -0.1417981247
 C          2.4526713404        2.0881029726       -1.0878330391
 C          1.5825169074        3.0932935152       -0.7013610911
 C          1.5499312142        3.5060693173        0.6198263930
 C          2.3848077686        2.9226783605        1.5588304849
 C          3.2595171747        1.9201281820        1.1772998345
 H          3.9202789145        1.4510244450        1.8885560751
 H          2.3492377165        3.2407148219        2.5887258366
 H          0.8622316388        4.2807330741        0.9215700221
 H          0.9252682139        3.5419166631       -1.4300386741
 H          2.5001333785        1.7291763595       -2.1037482353
 H          5.0534216685       -0.9215376856        1.1607054729
 H          3.8277481051       -2.1020061217        2.7919261093
 H          1.6633411720       -3.0803470826        3.4636235232
 H         -0.2518375467       -3.0336216214        1.9095987600
 C         -0.3819183972       -2.0217575676       -0.5541992835
 H         -0.8533319489       -3.0186470952       -0.5331441076
 C         -0.0297220931       -1.7369525380       -2.0067083547
 C         -1.0568323543       -1.2089259635       -2.9615041082
 C          0.0924311174       -0.3437849765       -2.5438623678
 H          0.8751265478       -0.1440945405       -3.2618828346
 H         -0.0943515027        0.4725928276       -1.8633704090
 H         -2.0363624938       -0.9832704585       -2.5657005753
 H         -1.0719860866       -1.5988565741       -3.9681704946
 H          0.6650617107       -2.4703854876       -2.4057408028
 O         -3.1236416297       -2.6913456388       -0.3663102460
