  62
        -98.93462493
 C         -2.4156245164       -1.1280305675        0.0103409912
 C         -2.4542054061        0.2817162614        0.1044962749
 C         -3.7728275924        0.8855919912        0.3744112178
 C         -4.8507094719        0.0902694935        0.5093387839
 C         -6.2965851637        0.4140685420        0.8242350391
 C         -6.8173594039        1.8453951672        0.7243410386
 C         -6.8618588835        2.4122960586       -0.6941319162
 H         -7.6372452911        1.8847250104       -1.2551512379
 H         -7.1522649869        3.4633475211       -0.6330210361
 C         -5.5634203239        2.3017618316       -1.4894723396
 H         -5.7373460050        2.7387571582       -2.4765851992
 H         -5.3147881905        1.2497598443       -1.6439145961
 C         -4.3578387593        3.0103568998       -0.8748077795
 H         -4.6049856402        4.0558740862       -0.6803522903
 H         -3.5513975505        2.9895267752       -1.6131450205
 C         -3.8115448859        2.3859392130        0.4210693508
 H         -2.7746873508        2.7137478297        0.5427962579
 H         -4.3664676038        2.7294272359        1.2909007737
 H         -6.2487574404        2.4997814777        1.3783358899
 H         -7.8422473085        1.8298779137        1.1049055241
 H         -6.4643786168        0.0557528418        1.8458869035
 H         -6.8934275193       -0.2301700102        0.1709543658
 O         -4.7587327839       -1.2696435104        0.4170469477
 C         -3.5589756364       -1.9087824421        0.1643322724
 O         -3.6390990270       -3.1525228614        0.1071485216
 O         -1.4344734975        1.0105775589       -0.0203563608
 C         -1.1047605914       -1.8354390080       -0.2774087189
 C         -0.0625788553       -1.4521262266        0.7451663253
 C         -0.4004202135       -1.4779251201        2.0959629192
 C          0.5232171045       -1.1276115939        3.0609559799
 C          1.8041665736       -0.7478474477        2.7009392146
 C          2.1593325640       -0.7402640361        1.3573976739
 C          1.2293596495       -1.0971977494        0.3902983757
 H          1.5282727295       -1.0751996406       -0.6436926103
 N          3.4735552188       -0.4160589425        0.9778713761
 S          3.7777742245        0.3655995852       -0.4858646472
 O          3.0134662190        1.5887922948       -0.5833679388
 O          3.6196149390       -0.5785953806       -1.5629787390
 C          5.5091250154        0.7362586587       -0.2679787016
 C          5.8942524450        2.0114678455        0.0994599421
 C          7.2412779562        2.2758799454        0.2925556560
 C          8.1747487766        1.2653873919        0.1182363445
 C          7.7731495409       -0.0097205876       -0.2520240436
 C          6.4283432011       -0.2802315401       -0.4479392120
 H          6.0701542911       -1.2523361814       -0.7439166140
 H          8.5022598817       -0.7919266280       -0.3892083457
 H          9.2221445996        1.4736810912        0.2694009394
 H          7.5565851292        3.2669401625        0.5768037603
 H          5.1335625154        2.7668981984        0.2156883489
 H          3.9939071531        0.0194517258        1.7276992323
 H          2.5232307830       -0.4641023816        3.4544042256
 H          0.2423328119       -1.1423599123        4.1034930854
 H         -1.4049940972       -1.7658784702        2.3766109876
 H         -1.3095783251       -2.9114559373       -0.1703338460
 C         -0.6716166897       -1.5643655454       -1.7034176020
 C          0.1393504377       -2.5770938412       -2.4525953019
 C         -1.2955364687       -2.3469931860       -2.8179958956
 H         -1.5194066203       -1.8377887297       -3.7434140556
 H         -2.0203512971       -3.1008621171       -2.5461062266
 H          0.9100896479       -2.2242411960       -3.1217555989
 H          0.3901203660       -3.4929333149       -1.9387809908
 H         -0.4661040434       -0.5141298839       -1.8834048034
