  62
        -98.94613836
 C         -1.9256691029       -1.2764371218        0.2895750417
 C         -1.7042627713        0.0992966472        0.0456225940
 C         -2.8414876778        0.9889605091        0.3209960560
 C         -3.9885333435        0.4660747695        0.7918892525
 C         -5.2391077534        1.2492603993        1.0653540594
 C         -6.1531646835        1.2847152596       -0.1674449815
 C         -5.4345947556        1.6799505943       -1.4575811203
 H         -4.7136500190        0.9013285427       -1.7174108036
 H         -6.1827868223        1.7016118318       -2.2529306649
 C         -4.7156691363        3.0348354256       -1.3944104783
 H         -4.9352886324        3.5903782259       -2.3085955382
 H         -5.1017261867        3.6204704056       -0.5593028048
 C         -3.1926625935        2.9401188110       -1.2863829642
 H         -2.8106033750        2.2783182234       -2.0679558875
 H         -2.7769989175        3.9346647497       -1.4690819765
 C         -2.6474020808        2.4567745633        0.0633733990
 H         -1.5652656515        2.6169270422        0.0583365738
 H         -3.0811247315        3.0512373413        0.8699462606
 H         -6.5853105525        0.2911044832       -0.3070902347
 H         -6.9676358861        1.9849991365        0.0265788075
 H         -5.7723310945        0.7696320367        1.8878747090
 H         -4.9705464870        2.2616931311        1.3603926827
 O         -4.1555408682       -0.8595648581        1.0335459391
 C         -3.1361786251       -1.7631992617        0.7826688427
 O         -3.4216101281       -2.9494510783        1.0429298088
 O         -0.6139495941        0.5638027650       -0.3771566962
 C         -0.8181234140       -2.2774418417        0.0138279225
 C          0.4196750052       -1.9024434832        0.7914303942
 C          0.3123481547       -1.7107980094        2.1674537233
 C          1.4162440934       -1.3672117407        2.9225477040
 C          2.6513267986       -1.1972647364        2.3201202267
 C          2.7707933450       -1.3914290870        0.9502903626
 C          1.6618611637       -1.7542350211        0.1959991935
 H          1.7875063245       -1.8920279537       -0.8643275301
 N          4.0162972584       -1.2491089725        0.3088542847
 S          4.1779076588       -0.1623092185       -0.9557664502
 O          3.2845822545       -0.5164066897       -2.0268709716
 O          5.5903461815       -0.1776606015       -1.2704594442
 C          3.7494578974        1.4193308289       -0.2496005398
 C          4.7752721484        2.2564559377        0.1470760615
 C          4.4646961999        3.4621821505        0.7535273423
 C          3.1372116512        3.8050114515        0.9626270375
 C          2.1215967916        2.9509077692        0.5631952675
 C          2.4225624900        1.7438462543       -0.0499599851
 H          1.6385291781        1.0736411757       -0.3656644533
 H          1.0864258815        3.2076007954        0.7240046590
 H          2.8919450507        4.7417175235        1.4381405894
 H          5.2547845089        4.1274855121        1.0626298614
 H          5.7918742053        1.9490346065       -0.0384323492
 H          4.7888707735       -1.1250504275        0.9486463747
 H          3.5147545927       -0.9210490433        2.9063781748
 H          1.3150156151       -1.2224279876        3.9875242047
 H         -0.6554379929       -1.8345193786        2.6351652032
 H         -1.1801729214       -3.2444847023        0.3927436887
 C         -0.5837407619       -2.3982302235       -1.4775042199
 C         -0.0463916081       -3.6725307059       -2.0534194725
 C         -1.4769527384       -3.2901042869       -2.2838457121
 H         -1.7735719500       -2.9679294361       -3.2708850978
 H         -2.2449710702       -3.8335032845       -1.7522777830
 H          0.6435550849       -3.6107064382       -2.8817514653
 H          0.1576219747       -4.4829359194       -1.3698795939
 H         -0.2698732903       -1.4649763878       -1.9324200773
