  62
        -98.93442461
 C          1.6450458200        0.4283666709       -0.2149457790
 C          2.7522455398        1.2453416906        0.1297277223
 C          4.0861652600        0.7132000511       -0.1849808579
 C          4.1859473103       -0.5008791282       -0.7550882993
 C          5.4703115505       -1.2147031077       -1.0681056097
 C          6.0658250202       -1.8169551191        0.2206048797
 C          7.3988587199       -1.2016097595        0.6469666509
 H          7.6077150597       -1.5459726507        1.6620955705
 H          8.1900320402       -1.5859567886       -0.0002909993
 C          7.4692181798        0.3282163305        0.6147200127
 H          8.3554825296        0.6173544600        1.1835815834
 H          7.6335921201        0.6664330018       -0.4094574068
 C          6.2534212595        1.0684966997        1.1869068032
 H          5.7192625394        0.4383018888        1.8982914723
 H          6.6148838092        1.9372450591        1.7408392944
 C          5.2652367598        1.5925655609        0.1281485735
 H          5.8060860901        1.8205540420       -0.7946117560
 H          4.8275237096        2.5268513004        0.4920499745
 H          5.3348323999       -1.6982612202        1.0232170196
 H          6.2118879703       -2.8899051790        0.0867995285
 H          5.2373145608       -2.0035841568       -1.7836700908
 H          6.1726723806       -0.5229529870       -1.5280199087
 O          3.1045921605       -1.2689584680       -1.0437721206
 C          1.8089749904       -0.8377113484       -0.7781747605
 O          0.9339224305       -1.6675424482       -1.0851683517
 O          2.6285023795        2.3713527899        0.6810915636
 C          0.2598893999        0.9637578003        0.1015788412
 C         -0.5771213002       -0.0908657906        0.7780108397
 C         -0.2076397906       -0.5275138421        2.0481094993
 C         -0.9403221807       -1.4974568129        2.7031118079
 C         -2.0724436104       -2.0361517024        2.1164209469
 C         -2.4485432801       -1.6087032509        0.8494268273
 C         -1.7017088700       -0.6431783000        0.1871427487
 H         -1.9873555897       -0.3664279488       -0.8131236311
 N         -3.5906606098       -2.1314838003        0.2292714763
 S         -4.5278405996       -1.1694828492       -0.7578324529
 O         -5.8427624596       -1.7736444794       -0.7028330340
 O         -3.9486102492       -1.0587367276       -2.0726679025
 C         -4.5624345700        0.4330110199        0.0289778791
 C         -4.9443985005        0.5128668182        1.3536479090
 C         -4.9653559408        1.7523550875        1.9719127405
 C         -4.6098563007        2.8868749284        1.2585660020
 C         -4.2382171303        2.7920541200       -0.0733221280
 C         -4.2122619599        1.5538143708       -0.6954179795
 H         -3.9225854996        1.4333805720       -1.7272877895
 H         -3.9642256902        3.6755818307       -0.6279590869
 H         -4.6229893310        3.8508569278        1.7421443531
 H         -5.2564112012        1.8302248962        3.0069804405
 H         -5.2227955705       -0.3849975624        1.8805995279
 H         -4.1405868399       -2.7635041510        0.7909996654
 H         -2.6497108805       -2.7918749630        2.6268762758
 H         -0.6353660109       -1.8326261641        3.6829833276
 H          0.6737280392       -0.1026937425        2.5090674801
 H          0.4427449295        1.7692124695        0.8325043322
 C         -0.4481608398        1.6085402217       -1.0800935882
 C          0.3197875504        2.2975198830       -2.1667274372
 C         -0.4122715893        1.0234508733       -2.4587166989
 H         -1.3105115191        1.0639273839       -3.0585148592
 H          0.1587586708        0.1198597336       -2.6057116398
 H         -0.0712171096        3.2208148735       -2.5666749762
 H          1.3984258004        2.2645569431       -2.1164031169
 H         -1.3800814300        2.0772808512       -0.7778531180
