  62
        -98.93900101
 C         -2.1013010345       -0.7479841590        0.5654891179
 C         -2.0215827493       -0.0136003134       -0.6398146543
 C         -1.9753349710        1.4534511019       -0.5156703510
 C         -1.9758109848        2.0133422508        0.7079502181
 C         -1.8557858808        3.4593711449        1.1441220258
 C         -2.0384780475        4.5959488462        0.1417607268
 C         -3.4575017486        4.7429545815       -0.4060643540
 H         -4.1078634751        5.0848106461        0.4028274004
 H         -3.4469305058        5.5174047489       -1.1759340039
 C         -4.0725553314        3.4725112704       -0.9871101052
 H         -4.1799679828        2.7237444436       -0.1997581190
 H         -5.0781489647        3.7183030693       -1.3387769980
 C         -3.3092783413        2.8539715859       -2.1566698001
 H         -3.9364235897        2.0634832152       -2.5770369279
 H         -3.1528723611        3.6055776009       -2.9327042898
 C         -1.9501911784        2.2240185461       -1.8037722980
 H         -1.6960817236        1.4996599802       -2.5832860132
 H         -1.1553862576        2.9663432582       -1.7852635959
 H         -1.3231108177        4.4965229375       -0.6692990178
 H         -1.7910064022        5.5197041107        0.6720067730
 H         -2.5709954064        3.5846116164        1.9637140419
 H         -0.8575229350        3.5451578549        1.5891189682
 O         -2.0437187089        1.2598888267        1.8467989201
 C         -2.0942982858       -0.1213266039        1.8079726440
 O         -2.1383965242       -0.6680273147        2.9308263112
 H          0.3575522455       -1.2766378890        0.9515317283
 C          0.3799918827       -2.0485995672        0.1946320571
 C         -0.7948425050       -2.7037574797       -0.1525686690
 C         -0.7361481830       -3.7072990163       -1.1103087026
 C          0.4647414303       -4.0123414232       -1.7285639749
 C          1.6200905351       -3.3189833843       -1.4195657180
 C          1.5750241687       -2.3279375205       -0.4446383597
 N          2.7295187240       -1.6103931735       -0.0833460128
 S          2.5447969585        0.0054124619        0.3759038691
 O          2.2043172561        0.0530333951        1.7772849838
 O          1.6521109362        0.6937052017       -0.5284314820
 C          4.2173721475        0.5840065732        0.1509409135
 C          5.1447227473        0.3425443720        1.1469308744
 C          6.4536416625        0.7569957425        0.9582341575
 C          6.8118239091        1.4011948166       -0.2168268990
 C          5.8698159721        1.6385433629       -1.2065200626
 C          4.5591200649        1.2256364310       -1.0245285151
 H          3.7899111578        1.3946020600       -1.7611855500
 H          6.1498502683        2.1426718290       -2.1173694465
 H          7.8310862013        1.7226888003       -0.3611319957
 H          7.1877182015        0.5766234565        1.7267788006
 H          4.8158918772       -0.1532683477        2.0453759905
 H          3.4820489576       -1.7206541322       -0.7497801751
 H          2.5481034354       -3.5385881738       -1.9250759752
 H          0.4961264098       -4.7886886959       -2.4779556663
 H         -1.6325648105       -4.2390049335       -1.3846119506
 C         -2.0693975885       -2.2655367198        0.5295849616
 H         -2.0310882831       -2.5947521674        1.5789695842
 C         -3.3235336688       -2.8174853712       -0.1145612912
 C         -3.8512826616       -4.1612503031        0.2870342128
 C         -4.5731343044       -2.9168727838        0.7059494878
 H         -5.5172389499       -2.6825154804        0.2377643622
 H         -4.5101992105       -2.6090654722        1.7398956416
 H         -4.3052205033       -4.7839768029       -0.4689561039
 H         -3.3058212222       -4.7069569191        1.0420842466
 H         -3.4260459766       -2.5111803313       -1.1491384168
 O         -1.9854775166       -0.5574867852       -1.7753162642
