  62
        -98.93471434
 C         -1.8182910510       -0.9389808447        0.4519406780
 C         -2.3209663724       -0.0934807613       -0.5645596681
 C         -3.4830904644        0.7523697105       -0.2121511274
 C         -3.9522267073        0.7262697839        1.0482870884
 C         -5.1347843118        1.4607581754        1.6213315784
 C         -6.4767006405        0.8339150480        1.2091396073
 C         -6.5760256846        0.4370245002       -0.2615067445
 H         -7.5226680518       -0.0920649431       -0.3992343768
 H         -5.7754176713       -0.2660356368       -0.4984083056
 C         -6.5416326919        1.5977282316       -1.2528620684
 H         -7.3699210433        2.2767062903       -1.0381166998
 H         -6.7060941427        1.1785317474       -2.2487999825
 C         -5.2453288128        2.4101516481       -1.2886779156
 H         -5.1877017031        3.0946342162       -0.4464987032
 H         -5.2752013843        3.0304855349       -2.1893367930
 C         -3.9711818717        1.5759785901       -1.3795467678
 H         -3.1371288628        2.2396323454       -1.6392731237
 H         -4.0577543910        0.8827328136       -2.2241283858
 H         -7.2750705378        1.5363639407        1.4541826232
 H         -6.6256387450       -0.0681420053        1.8078008631
 H         -5.0431789765        1.4027853177        2.7083279902
 H         -5.0941151752        2.5094731472        1.3420972532
 O         -3.3882320624       -0.0535391983        2.0154731942
 C         -2.3222688187       -0.8906700434        1.7530515238
 O         -1.9063087558       -1.5211453361        2.7465542207
 H          0.5904750608        0.2994965664        1.0700394510
 C          0.9922255778       -0.0115105393        0.1127231741
 C          0.4594684670       -1.1358709439       -0.5076693417
 C          0.9825537227       -1.5261186223       -1.7325060532
 C          1.9951326339       -0.7925641549       -2.3270534778
 C          2.5113628039        0.3340857616       -1.7150219382
 C          2.0011246130        0.7277539873       -0.4839160147
 N          2.5255731536        1.8661156943        0.1523252855
 S          4.1884407631        2.0473342564        0.1904008426
 O          4.4551335773        2.8383336368        1.3716755313
 O          4.6460097845        2.6075312174       -1.0566982851
 C          4.8369394713        0.3962252925        0.3841819682
 C          5.6533063291       -0.1443259614       -0.5881041145
 C          6.1194619535       -1.4395322480       -0.4276773036
 C          5.7594169015       -2.1689779085        0.6945512643
 C          4.9410896585       -1.6104499003        1.6648121164
 C          4.4739729180       -0.3155437476        1.5105610126
 H          3.8405737079        0.1488696212        2.2496903305
 H          4.6617804702       -2.1787729474        2.5375974698
 H          6.1184708004       -3.1786776573        0.8163955850
 H          6.7581513573       -1.8754942225       -1.1787733082
 H          5.9063963226        0.4571711552       -1.4458651766
 H          2.1146355712        2.0608240150        1.0530390722
 H          3.2864480573        0.9252529556       -2.1751843059
 H          2.3834143756       -1.0992272116       -3.2861894670
 H          0.5783484169       -2.3876925750       -2.2372707011
 C         -0.6438421535       -1.8722758581        0.2119476271
 H         -0.2740194666       -2.1198172579        1.2209591006
 C         -1.0189756542       -3.1931454405       -0.4430146310
 C         -2.3811665720       -3.7880840277       -0.2494587207
 C         -1.9701839887       -3.2793369163       -1.5969075516
 H         -1.7670423847       -4.0010930303       -2.3746350497
 H         -2.4029400115       -2.3602125430       -1.9577841041
 H         -3.1012200417       -3.2160472044        0.3180723990
 H         -2.4590131101       -4.8547567731       -0.1013076672
 H         -0.1884726789       -3.8922002516       -0.4434620630
 O         -1.8428287527       -0.0359264947       -1.7264366914
