  62
        -98.94356442
 C         -1.8331114333        0.8208134124       -0.8054846385
 C         -2.0901455105        0.4313343295        0.5311732918
 C         -3.5035188214        0.4387007934        0.9360056013
 C         -4.4415600496        0.8257772486        0.0523480577
 C         -5.9193385655        0.8236981695        0.3144203302
 C         -6.5538868573       -0.5098604159       -0.1049244842
 C         -5.8169872900       -1.7389494129        0.4275482005
 H         -6.3704285732       -2.6194933037        0.0939098212
 H         -4.8271798867       -1.7889317262       -0.0321934308
 C         -5.6670795123       -1.7772552313        1.9547941618
 H         -6.3803938518       -1.0918967353        2.4140364705
 H         -5.9118869225       -2.7822328843        2.3050627759
 C         -4.2593630023       -1.4589239817        2.4622813593
 H         -3.5300660231       -2.0796192975        1.9353217843
 H         -4.2119786861       -1.7261115074        3.5213176303
 C         -3.8215909570        0.0060599051        2.3395466904
 H         -4.5793878490        0.6554275041        2.7823966029
 H         -2.8928323083        0.1231116033        2.9053136259
 H         -7.5884776292       -0.5248141793        0.2426362407
 H         -6.5614881904       -0.5615465132       -1.1962465344
 H         -6.0962491805        1.0055836354        1.3725716737
 H         -6.3730733570        1.6295932182       -0.2648727913
 O         -4.1511597252        1.2194556080       -1.2146246633
 C         -2.8461295302        1.2122200179       -1.6796490424
 O         -2.7200149770        1.5671137168       -2.8696754821
 H          2.0909139147        0.1158239211       -0.4021734617
 C          1.4913507568       -0.7329178126       -0.6840168484
 C          0.2068133708       -0.5485217867       -1.1698962143
 C         -0.5319849503       -1.6691542985       -1.5417324500
 C         -0.0052493187       -2.9386585881       -1.4094547975
 C          1.2761043089       -3.1186225828       -0.9183091717
 C          2.0275112732       -2.0077412428       -0.5570024332
 N          3.3185030023       -2.1587712382       -0.0347503790
 S          4.5189533026       -1.0488599920       -0.3733951742
 O          4.4141806551       -0.5410622980       -1.7215496630
 O          5.7498889308       -1.7409185889       -0.0541283300
 C          4.2782122420        0.2678505327        0.8006379652
 C          3.8503429278       -0.0335511200        2.0782096465
 C          3.6999206901        0.9964774661        2.9928349475
 C          3.9859706550        2.3012188188        2.6207989886
 C          4.4222268309        2.5864436296        1.3363357959
 C          4.5710296741        1.5612328402        0.4153840085
 H          4.8961745441        1.7390115973       -0.5975884942
 H          4.6443176222        3.6019829522        1.0485596802
 H          3.8661426674        3.1006195091        3.3350096960
 H          3.3568204413        0.7787329345        3.9914931203
 H          3.6300603563       -1.0562783034        2.3346113213
 H          3.6676882473       -3.1051096874       -0.0074521623
 H          1.6889001354       -4.1104023348       -0.8129430595
 H         -0.5941598517       -3.7974908303       -1.6952161970
 H         -1.5316219424       -1.5294508199       -1.9314744942
 C         -0.4076358651        0.8213695238       -1.3258642144
 H         -0.4737878667        1.0425240332       -2.4017441866
 C          0.3872153358        1.9206102295       -0.6513993999
 C          1.5219127748        2.5858865461       -1.3685965816
 C          0.2381495420        3.3263561385       -1.1472097652
 H          0.2234874241        4.1291621446       -0.4257406524
 H         -0.4163496410        3.4858807529       -1.9920417735
 H          2.3877372799        2.8807686405       -0.7953613061
 H          1.7516152338        2.2463810696       -2.3676279928
 H          0.4745388325        1.7728960729        0.4191071934
 O         -1.1898927582        0.0933366754        1.3423106134
