  62
        -98.93191303
 C         -2.2973546667       -0.8033718945       -0.2867058641
 C         -3.6190485360       -1.2295002472        0.0034188026
 C         -4.6993007957       -0.3347149782       -0.4213178854
 C         -4.3997665228        0.8087408018       -1.0634310083
 C         -5.3881348636        1.8171714528       -1.5837446449
 C         -5.8707878698        2.8215092096       -0.5281228263
 C         -6.8297420603        2.2546078331        0.5195227941
 H         -7.2559476687        3.1043498992        1.0564639222
 H         -7.6508578640        1.7411635515        0.0184512792
 C         -6.1718495672        1.3094309151        1.5345817538
 H         -5.0879115443        1.4436827116        1.5082262769
 H         -6.5020158614        1.5703076692        2.5426007897
 C         -6.4915016738       -0.1702834872        1.3221121765
 H         -5.9456418413       -0.7499106421        2.0708138872
 H         -7.5591979085       -0.3409596262        1.4765418570
 C         -6.1068741994       -0.7059791738       -0.0631802629
 H         -6.8009525796       -0.3343258960       -0.8166045120
 H         -6.1665525418       -1.7967282957       -0.0383487580
 H         -4.9980470427        3.2499634212       -0.0299820748
 H         -6.3813968742        3.6292355210       -1.0575506430
 H         -6.2458091440        1.2998896257       -2.0147514846
 H         -4.8793347519        2.3689024163       -2.3770576955
 O         -3.1215863400        1.1767527388       -1.3381134924
 C         -2.0366513366        0.3949866532       -0.9522816304
 O         -0.9371546933        0.8860457946       -1.2631366458
 O         -3.8821037996       -2.3132887091        0.5912263822
 C         -1.1650848181       -1.7234668788        0.1539086391
 C         -0.1512463006       -0.9656882469        0.9705412695
 C         -0.4347535673       -0.7965928566        2.3269927527
 C          0.4166199993       -0.0954013551        3.1576364197
 C          1.5944669237        0.4363895081        2.6629860068
 C          1.8840258004        0.2859752380        1.3136759834
 C          1.0105128021       -0.3957663848        0.4757598798
 H          1.2617749208       -0.4421697438       -0.5677762792
 N          3.0608575719        0.8202706539        0.7641942077
 S          3.8519829352       -0.0987521900       -0.4111966503
 O          3.3623917735        0.2674441388       -1.7156166155
 O          3.7738178009       -1.5001633403       -0.0644590060
 C          5.5256936533        0.4879177635       -0.2167521222
 C          5.9014405773        1.6540968766       -0.8564902633
 C          7.1921266950        2.1277707258       -0.6822646737
 C          8.0805203696        1.4321125323        0.1244852160
 C          7.6896896136        0.2624178099        0.7587305705
 C          6.3998962295       -0.2161682456        0.5897896785
 H          6.0544443469       -1.1255054730        1.0547444754
 H          8.3836261522       -0.2781681163        1.3819704936
 H          9.0846879135        1.8026661113        0.2571935583
 H          7.5001188010        3.0351131856       -1.1763802727
 H          5.1788188634        2.1542617019       -1.4804064713
 H          3.7002552597        1.1741879444        1.4623158219
 H          2.2734534339        0.9710604479        3.3098717886
 H          0.1706399297        0.0245643134        4.2019726571
 H         -1.3468389756       -1.2217554376        2.7236022186
 H         -1.6571303872       -2.4229755712        0.8497037030
 C         -0.7085444033       -2.5949077311       -1.0100362496
 C          0.0502618055       -2.1315048749       -2.2159627214
 C          0.6918630871       -3.0753502254       -1.2421126113
 H          0.8277175218       -4.1022693478       -1.5492830671
 H          1.4879525988       -2.7022313487       -0.6159728786
 H         -0.2558730235       -2.5187902325       -3.1782149742
 H          0.3841454037       -1.1069559450       -2.2622833451
 H         -1.4880601126       -3.3223239109       -1.2286158030
