  62
        -98.93827068
 C         -1.7644290039       -0.0770811859        0.1719237024
 C         -2.8950346687       -0.9289776950        0.1069922122
 C         -4.1174906995       -0.3254109815       -0.4531187705
 C         -4.0909644554        0.9414425680       -0.9019254050
 C         -5.2723131750        1.6847765197       -1.4535209941
 C         -6.0130636807        2.4496931856       -0.3478774720
 C         -6.3234243139        1.6031331812        0.8866105842
 H         -5.3857104864        1.3269686238        1.3743047945
 H         -6.8743926601        2.2364169700        1.5853818323
 C         -7.1361978180        0.3334019363        0.5975166075
 H         -7.9272489637        0.2462010239        1.3454237197
 H         -7.6197661776        0.4168081546       -0.3764414475
 C         -6.3273130079       -0.9640539448        0.6516980021
 H         -7.0294697752       -1.8020983775        0.6514623847
 H         -5.7673694294       -1.0077570461        1.5893414074
 C         -5.3466540619       -1.1889963049       -0.5061257860
 H         -4.9899888937       -2.2213081476       -0.4426402355
 H         -5.8664140158       -1.0631223392       -1.4580770320
 H         -6.9420071843        2.8442274148       -0.7636000427
 H         -5.3938568297        3.2942241690       -0.0368242171
 H         -5.9462086997        0.9797690957       -1.9363288111
 H         -4.9123241634        2.3973214794       -2.1975568530
 O         -2.9763543768        1.7155036248       -0.8599130923
 C         -1.8000422744        1.2333069717       -0.3140360842
 O         -0.8626606203        2.0565311706       -0.3126377333
 O         -2.9070968859       -2.1277278418        0.4852462891
 C         -0.4255012790       -0.5068079814        0.7469581247
 C          0.4511878284       -1.1429425774       -0.3003512165
 C         -0.0288597964       -2.1271224020       -1.1581930835
 C          0.8096106829       -2.7077048501       -2.0922808700
 C          2.1404938387       -2.3368837778       -2.1741476143
 C          2.6293479738       -1.3535556706       -1.3223251192
 C          1.7775273547       -0.7526721565       -0.4062753614
 H          2.1553087730        0.0263616917        0.2371908509
 N          3.9684245327       -0.9475170476       -1.3806482957
 S          4.7837975984       -0.5419824257        0.0238624655
 O          6.1815926429       -0.7149580116       -0.3071685534
 O          4.2979855489       -1.2972677100        1.1542691613
 C          4.4498893074        1.1922514669        0.2410265912
 C          4.7230626564        2.0457930789       -0.8093160523
 C          4.4766439424        3.3998702225       -0.6522516435
 C          3.9656700235        3.8751637280        0.5460757378
 C          3.7008910468        3.0059238431        1.5927328199
 C          3.9455541213        1.6502046222        1.4417321164
 H          3.7473110153        0.9396751178        2.2293235767
 H          3.3011615016        3.3768636230        2.5229370336
 H          3.7705126989        4.9291848326        0.6655981450
 H          4.6797771813        4.0803293056       -1.4634686104
 H          5.1213999529        1.6395126628       -1.7240140590
 H          4.5470399181       -1.4632086568       -2.0271548180
 H          2.7965727435       -2.8030101181       -2.8935637032
 H          0.4264199960       -3.4693566801       -2.7547609000
 H         -1.0590952823       -2.4388829218       -1.0779757310
 H          0.0668390617        0.4296332035        1.0556576546
 C         -0.5518022719       -1.3727156851        1.9935613941
 C         -0.2565172511       -2.8386887502        2.0210118496
 C          0.6805389968       -1.8778289818        2.6855982808
 H          0.7133111534       -1.8505807450        3.7646495786
 H          1.6369692992       -1.7021060716        2.2130725794
 H         -0.8872002927       -3.4642407853        2.6341381826
 H          0.0640559952       -3.3124339974        1.1067019976
 H         -1.3620614635       -1.0377063126        2.6338507123
