  62
        -98.93917343
 C         -2.6774657856       -0.2732031976       -0.3187309529
 C         -2.2516113379       -1.0570458012        0.7823547923
 C         -1.7268886239       -2.3935602581        0.4528517139
 C         -1.6554252465       -2.7844414848       -0.8310689266
 C         -1.1192818189       -4.1051354421       -1.3025844126
 C          0.3796054253       -4.0309668383       -1.6203950214
 C          1.2223468538       -3.3997919949       -0.5114956805
 H          2.2671885495       -3.4592470500       -0.8266767836
 H          0.9794567301       -2.3370743489       -0.4333988112
 C          1.0665789683       -4.0612786789        0.8646341705
 H          2.0573234480       -4.1712400870        1.3107614927
 H          0.6469084064       -5.0622495566        0.7506932301
 C          0.2206235615       -3.2636664590        1.8592569361
 H          0.5705867957       -2.2281274338        1.8854137955
 H          0.3776565855       -3.6872824721        2.8555843335
 C         -1.2915359641       -3.2620321926        1.5996219419
 H         -1.6419928840       -4.2875511490        1.4593223197
 H         -1.7792170525       -2.8495812787        2.4881856093
 H          0.5130814128       -3.4348345405       -2.5260446692
 H          0.7377097048       -5.0431812839       -1.8200263218
 H         -1.6586634923       -4.3861265008       -2.2091854541
 H         -1.3011356035       -4.8561792936       -0.5358225851
 O         -2.0584331817       -1.9997359465       -1.8635941398
 C         -2.5504779500       -0.7284474917       -1.6336387822
 O         -2.8672085773       -0.1069817538       -2.6693241944
 O         -2.3116181986       -0.6897050548        1.9848378837
 C         -3.1945371517        1.1521257139       -0.1909986679
 C         -2.0463159878        2.1135992769       -0.3699536619
 C         -2.1650840226        3.2604883397       -1.1448141947
 C         -1.0827097518        4.1042683000       -1.3316489577
 C          0.1495041091        3.8019590100       -0.7797331647
 C          0.2766496910        2.6563964370       -0.0056533461
 C         -0.8190424052        1.8416707373        0.2192505143
 H         -0.6980782095        0.9628883404        0.8366984401
 N          1.5585511840        2.2689955615        0.4837969355
 S          1.8871511797        0.6225126978        0.3866044596
 O          1.2584389243        0.1034746915       -0.8025110985
 O          1.5999802589       -0.0411612262        1.6415941026
 C          3.6531148214        0.6710294590        0.1450213286
 C          4.5060698856        0.1776794862        1.1120348625
 C          5.8744933174        0.2487050135        0.8993456969
 C          6.3629556168        0.8118414882       -0.2692292510
 C          5.4932972133        1.3029288202       -1.2322570180
 C          4.1253637803        1.2329481722       -1.0255828945
 H          3.4102599568        1.5943354838       -1.7465148257
 H          5.8763433205        1.7389546600       -2.1408485007
 H          7.4277111170        0.8673165225       -0.4321719824
 H          6.5520774501       -0.1343118054        1.6454070232
 H          4.0801358030       -0.2531767810        2.0039167847
 H          1.7753894729        2.6236193507        1.4043488706
 H          1.0085983506        4.4305196276       -0.9486614706
 H         -1.1945700421        4.9913876392       -1.9360505823
 H         -3.1090112823        3.4768629037       -1.6237649507
 H         -3.8777489941        1.2964583652       -1.0440879588
 C         -3.9912361918        1.4088645157        1.0794425643
 C         -3.4562447368        2.1981999236        2.2324376422
 C         -4.5297451785        2.7797127521        1.3655513808
 H         -5.5280189995        2.8662148703        1.7665210333
 H         -4.2501722829        3.5767187606        0.6937041263
 H         -3.7062708850        1.8625031323        3.2270284484
 H         -2.4574047314        2.5987060722        2.1505911904
 H         -4.6333730307        0.5708753395        1.3284581833
