  62
        -98.94848173
 C          0.8264479132        1.2358967457        0.5674989916
 C          1.1954122334        0.5445532270       -0.6111725195
 C          2.1360504787       -0.5671450208       -0.4218025085
 C          2.4678508250       -0.9552819922        0.8222684253
 C          3.4065935136       -2.0758958555        1.1788804441
 C          4.8835263627       -1.6573785856        1.1986891624
 C          5.5042870899       -1.4143358623       -0.1777674114
 H          6.5839880884       -1.3416470754       -0.0329213311
 H          5.3191672573       -2.2788740074       -0.8157867632
 C          5.0135353925       -0.1396049426       -0.8786360656
 H          4.5387332169        0.5186157219       -0.1471865450
 H          5.8695031592        0.4027464795       -1.2866722593
 C          4.0397984544       -0.3830165415       -2.0321805089
 H          3.7327617254        0.5879349279       -2.4286356616
 H          4.5488053203       -0.9271287370       -2.8306217101
 C          2.7739000004       -1.1589208847       -1.6416359892
 H          3.0146403268       -2.2083474241       -1.4794194040
 H          2.0552842836       -1.0794149900       -2.4599041948
 H          4.9837058827       -0.7569827404        1.8094211567
 H          5.4433049447       -2.4558910879        1.6912956322
 H          3.2777220897       -2.9050297219        0.4832681448
 H          3.1284686137       -2.4110398300        2.1805458866
 O          1.9627121780       -0.3581132479        1.9366753873
 C          1.1902595416        0.7884937881        1.8365953925
 O          0.8883640179        1.3042115456        2.9334336975
 O          0.7838376870        0.8504270362       -1.7589837509
 C          0.0080373566        2.5100570998        0.4705986133
 C         -1.3227065597        2.2404123444       -0.1861943139
 C         -1.8431760141        3.0196182140       -1.2113604996
 C         -3.0829860541        2.7264083481       -1.7520597996
 C         -3.8268726964        1.6597524854       -1.2834208898
 C         -3.3186633796        0.8807462535       -0.2491385765
 C         -2.0762395722        1.1738682609        0.2887971023
 H         -1.6921559493        0.5706706947        1.0994052502
 N         -4.0602021994       -0.1921872693        0.2655470876
 S         -3.3119765022       -1.5233688866        0.9215255989
 O         -4.3386236944       -2.5457912004        0.9065267487
 O         -2.7663085855       -1.2144553426        2.2201702859
 C         -2.0105517939       -2.0125378187       -0.1962229138
 C         -0.8801232901       -2.5921824995        0.3413356021
 C          0.0868841372       -3.0983341493       -0.5109928778
 C         -0.0857463579       -3.0055874101       -1.8825138668
 C         -1.2164587292       -2.4018489260       -2.4079372281
 C         -2.1950162444       -1.9092612957       -1.5603057868
 H         -3.0876942482       -1.4486823963       -1.9503898550
 H         -1.3419885328       -2.3174686602       -3.4752123609
 H          0.6654229849       -3.4056242884       -2.5446547770
 H          0.9653660441       -3.5667599411       -0.0981159985
 H         -0.7780475407       -2.6323930711        1.4149141936
 H         -4.9009587736       -0.4288392129       -0.2395669570
 H         -4.7940172597        1.4320163511       -1.7045691369
 H         -3.4742969444        3.3361428243       -2.5519791987
 H         -1.2781919206        3.8551897472       -1.5895626249
 H         -0.1889733700        2.8231227033        1.5069978900
 C          0.8198982593        3.5872216485       -0.2200864256
 C          0.5964872149        5.0317637156        0.1084213144
 C          1.8423195068        4.3411902955        0.5738521687
 H          2.7806832773        4.5923360659        0.1024615779
 H          1.9331649435        4.0969265559        1.6227583496
 H          0.6831610028        5.7612631220       -0.6826278055
 H         -0.1566579602        5.2662929831        0.8454897703
 H          1.0747267404        3.3258795724       -1.2406672947
