  62
        -98.94518348
 C         -1.8086507091       -1.4141437840       -0.0489336611
 C         -2.9182895697       -0.7102951701        0.4812456418
 C         -3.3067339530        0.5152733852       -0.2223007099
 C         -2.6160564798        0.9071360372       -1.3081030240
 C         -2.8736426467        2.1446660043       -2.1228997438
 C         -2.1968728080        3.3946271186       -1.5431240566
 C         -2.8629964805        3.9662959582       -0.2908559917
 H         -2.4405255244        4.9600162790       -0.1288011585
 H         -3.9324153022        4.0891259033       -0.4687095431
 C         -2.6400287966        3.1278418512        0.9757815833
 H         -1.7913772946        2.4562591680        0.8174832889
 H         -2.3666150552        3.7874130580        1.8037166355
 C         -3.8577054789        2.3183860858        1.4252018845
 H         -4.6594455897        3.0000807128        1.7190081488
 H         -3.5738947414        1.7343746308        2.3049381549
 C         -4.4038617520        1.3478604039        0.3694757521
 H         -5.1099628869        0.6723982471        0.8592881740
 H         -4.9283020629        1.8980293846       -0.4113136811
 H         -1.1550985610        3.1518419852       -1.3157402768
 H         -2.2026231360        4.1640906590       -2.3189340621
 H         -2.4605859302        1.9577803053       -3.1164175765
 H         -3.9467197170        2.3147298120       -2.2155791655
 O         -1.5746133368        0.1945429815       -1.8029112436
 C         -1.0948367726       -0.9291847911       -1.1478475961
 O         -0.0604364081       -1.4002897055       -1.6565412014
 O         -3.5432914280       -1.0808620721        1.5131499723
 C         -1.2812242622       -2.5997981673        0.7457279241
 C          0.1808417213       -2.3498824210        1.0143841998
 C          1.2107461826       -3.2045918519        0.6473370909
 C          2.5320999285       -2.8282851274        0.8241519468
 C          2.8526344692       -1.5844014817        1.3374092499
 C          1.8270976098       -0.7314728151        1.7221842950
 C          0.5101833065       -1.1298895578        1.5943775116
 H         -0.2823259278       -0.4492621425        1.8838178845
 N          2.1485632662        0.5947692337        2.1409382671
 S          1.9532363428        1.6591807674        0.8380438926
 O          2.2829947911        2.9715857645        1.3552356017
 O          0.6359607345        1.5464359884        0.2490973127
 C          3.2163567417        1.0998565506       -0.2769173341
 C          4.5013260340        1.5711667907       -0.0872725302
 C          5.5148856148        1.0995788656       -0.9049594345
 C          5.2269469368        0.1637158135       -1.8877003405
 C          3.9322230417       -0.3000051234       -2.0616519706
 C          2.9103572808        0.1686114089       -1.2491731938
 H          1.8949695346       -0.1826388163       -1.3589277469
 H          3.7041328437       -1.0309632236       -2.8207007720
 H          6.0161984058       -0.2080768502       -2.5220629409
 H          6.5229068879        1.4579886611       -0.7719434488
 H          4.6720162298        2.2975516174        0.6902094347
 H          1.5521285574        0.9189429691        2.8919432344
 H          3.8763281200       -1.2611930323        1.4340264903
 H          3.3220006137       -3.5002013851        0.5263251759
 H          0.9787969784       -4.1517031143        0.1883574417
 H         -1.8234694615       -2.5427475856        1.7051813611
 C         -1.5822428777       -3.9692993836        0.1610894696
 C         -2.7683566882       -4.1775467871       -0.7313850087
 C         -1.3826577265       -4.2931298164       -1.2879991212
 H         -1.0174968402       -5.2769546585       -1.5442852198
 H         -1.0165915601       -3.5079404092       -1.9295302533
 H         -3.3539915633       -5.0761277575       -0.6076210006
 H         -3.3523520862       -3.3068381562       -0.9935550552
 H         -1.3713073939       -4.7644999526        0.8698104685
