  62
        -98.93910944
 C         -2.4730980226       -1.0452978321        0.3595590901
 C         -2.5995158443        0.1613082310        1.0982975374
 C         -3.8573003030        0.8979309198        0.9390926354
 C         -4.8243467350        0.3977495907        0.1489983776
 C         -6.1842122090        0.9992285204       -0.0814035995
 C         -6.2144759611        2.0862653208       -1.1641061998
 C         -5.5658934858        3.4133742727       -0.7691703003
 H         -5.8465580098        4.1462506144       -1.5280990102
 H         -5.9817286592        3.7518101372        0.1802737534
 C         -4.0344199375        3.3645627714       -0.6737808969
 H         -3.6637650257        2.4759540779       -1.1903093367
 H         -3.6088808421        4.2310139602       -1.1850533023
 C         -3.4860653590        3.3688287517        0.7534535212
 H         -2.3962237692        3.2940282498        0.7022122776
 H         -3.7354372835        4.3148061107        1.2395065116
 C         -3.9983773706        2.2195873270        1.6316532077
 H         -3.3916324145        2.1852393839        2.5399911082
 H         -5.0375375667        2.3939379176        1.9106636006
 H         -5.7306804069        1.6976483927       -2.0630274380
 H         -7.2627804751        2.2760842247       -1.4054891592
 H         -6.8348744274        0.1808237797       -0.3967452163
 H         -6.5660712204        1.4064211837        0.8552321634
 O         -4.6737943726       -0.7662999472       -0.5317329737
 C         -3.4982606948       -1.5028605904       -0.4695027188
 O         -3.5209934831       -2.5210397437       -1.1884414726
 O         -1.7030609928        0.5949984229        1.8727748511
 C         -1.1762658313       -1.8146133793        0.5375229515
 C         -0.1846754186       -1.5530441422       -0.5718039195
 C         -0.4976337040       -1.8006449324       -1.9040610704
 C          0.4405435881       -1.5728696587       -2.8941778342
 C          1.7030939094       -1.1044900159       -2.5775050655
 C          2.0314380421       -0.8671302533       -1.2471215874
 C          1.0843032101       -1.0875703951       -0.2568362242
 H          1.3413003805       -0.8784734999        0.7705912956
 N          3.3300647287       -0.4537808618       -0.9058520382
 S          3.6049655781        0.5100496425        0.4494669773
 O          3.4364772320       -0.2924384735        1.6346004481
 O          2.8230194600        1.7241750343        0.3720180241
 C          5.3359802088        0.8671922232        0.2149890564
 C          6.2475314161       -0.1456508512        0.4484801183
 C          7.5950464125        0.1062582580        0.2476726223
 C          8.0071754509        1.3601788028       -0.1793668780
 C          7.0814952353        2.3672654845       -0.4061060998
 C          5.7313325595        2.1211494334       -0.2092578723
 H          4.9762389069        2.8744286358       -0.3673265038
 H          7.4051721503        3.3418250126       -0.7343729430
 H          9.0568086806        1.5542149445       -0.3338864876
 H          8.3178942303       -0.6735993060        0.4252762008
 H          5.8816359373       -1.1003742064        0.7883437654
 H          3.8520590612       -0.1148424673       -1.7027548939
 H          2.4328012362       -0.9294804891       -3.3534594518
 H          0.1845041867       -1.7612847967       -3.9260180420
 H         -1.4811134370       -2.1679416460       -2.1535592795
 H         -0.7373396843       -1.4203947933        1.4651931451
 C         -1.3760111977       -3.3096821652        0.7036546522
 C         -0.3048657778       -4.1109636361        1.3777918747
 C         -1.6117952989       -3.8717214186        2.0715652560
 H         -2.3010451430       -4.6958882982        2.1772310410
 H         -1.6297424117       -3.1780651515        2.8999369521
 H         -0.0937595029       -5.1020918040        1.0069836363
 H          0.5648788103       -3.5799706452        1.7360329960
 H         -1.9057724237       -3.7658294787       -0.1223257118
