  62
        -98.93445473
 C         -1.8443952438       -1.2400857340       -0.0364764879
 C         -2.1177240180        0.0834933917       -0.4597094783
 C         -3.3977760221        0.6570433539       -0.0046673659
 C         -4.1949164375       -0.0592627711        0.8068891406
 C         -5.5513638199        0.3612422649        1.2967004458
 C         -6.5969316744        0.1735679365        0.1788260174
 C         -7.2159538460        1.4753312899       -0.3308622226
 H         -7.7618168404        1.2409219288       -1.2472617701
 H         -7.9418943824        1.8337631683        0.4020099816
 C         -6.2338299683        2.6164107551       -0.6132831915
 H         -5.9609407068        3.1060135113        0.3228436467
 H         -6.7717000148        3.3589467878       -1.2066793506
 C         -4.9494412472        2.2280115438       -1.3569163336
 H         -5.1018482400        1.3175624866       -1.9369089048
 H         -4.7161785172        3.0228722236       -2.0683373136
 C         -3.7128455487        2.0572887922       -0.4547963133
 H         -2.8277045407        2.3779063681       -1.0123952381
 H         -3.8043417693        2.7100654201        0.4179710720
 H         -7.4017113831       -0.4696568179        0.5378722668
 H         -6.1204925724       -0.3536657793       -0.6504095384
 H         -5.7951148760       -0.2666486291        2.1539823665
 H         -5.5204647349        1.3986202921        1.6225770643
 O         -3.8806307633       -1.3126455875        1.2252175659
 C         -2.7156773518       -1.9326993327        0.8098609944
 O         -2.5677841079       -3.0892165952        1.2523173043
 H          0.3788874124        0.4273601878        0.1949856846
 C          0.9450523219       -0.3659126321        0.6604803855
 C          0.5722160093       -1.6852715830        0.4412142672
 C          1.3153891836       -2.6940994135        1.0420692350
 C          2.4010652924       -2.3877012695        1.8446829245
 C          2.7700904981       -1.0720025100        2.0598025655
 C          2.0347946050       -0.0566777711        1.4613124818
 N          2.4073853201        1.2887088679        1.6603395564
 S          3.9671341145        1.7095756850        1.2132907954
 O          4.8960307721        1.1466966285        2.1606704360
 O          3.9621541652        3.1501175119        1.1020274599
 C          4.1954698183        0.9591778790       -0.3874811602
 C          3.7312354446        1.6329547541       -1.4997509861
 C          3.8373116950        1.0292855264       -2.7421784633
 C          4.3889306452       -0.2383620580       -2.8481411836
 C          4.8483512714       -0.9023899839       -1.7214933491
 C          4.7536207687       -0.3004084969       -0.4769431043
 H          5.1066586738       -0.7802370542        0.4206605047
 H          5.2761378758       -1.8880825396       -1.8071256392
 H          4.4589360838       -0.7114363118       -3.8145445045
 H          3.4808310552        1.5446080285       -3.6194246320
 H          3.3073051847        2.6166807153       -1.3753348751
 H          1.7502663570        1.9388541452        1.2521208182
 H          3.6150944683       -0.8144302886        2.6778302494
 H          2.9653003086       -3.1816169475        2.3097329202
 H          1.0284093193       -3.7239100388        0.8875061234
 C         -0.5991055452       -2.0104386070       -0.4487278787
 H         -0.8543717088       -3.0686598855       -0.2826027040
 C         -0.2742461095       -1.8557974467       -1.9298026360
 C          0.8885459963       -1.0746077174       -2.4549461386
 C          0.9076828036       -2.5701907118       -2.5164471183
 H          0.7958556898       -3.0548654249       -3.4742039635
 H          1.5622836101       -3.0864161124       -1.8306693449
 H          1.5413382157       -0.5857097043       -1.7495504010
 H          0.7408165099       -0.5153735981       -3.3658182169
 H         -1.1764018906       -1.8329516456       -2.5332606968
 O         -1.3455562423        0.7740607684       -1.1747690900
