  62
        -98.93747555
 C         -2.4046156226       -1.1293003353       -0.0106974808
 C         -3.3841973339       -0.6278713755        0.8841732923
 C         -4.3766129272        0.3229535927        0.3494120986
 C         -4.3113314328        0.6556697169       -0.9528476390
 C         -5.1785480527        1.6193892255       -1.7184567900
 C         -4.8399592960        3.0886119029       -1.4204849271
 C         -4.6333015863        3.4130188261        0.0565619544
 H         -3.8274371889        2.7912116167        0.4507839108
 H         -4.3027967931        4.4528567460        0.1244034446
 C         -5.8718687827        3.2582211920        0.9359569371
 H         -6.6668150605        3.9012994877        0.5518854292
 H         -5.6071670488        3.6178129213        1.9335419309
 C         -6.4205159846        1.8363928486        1.0761468029
 H         -6.9919136368        1.5461137675        0.1985207702
 H         -7.1223125206        1.8400157344        1.9152403949
 C         -5.3690838619        0.7775258046        1.3922144319
 H         -4.7757832794        1.1052039903        2.2534052692
 H         -5.8801565592       -0.1333990554        1.7264288948
 H         -5.6371499002        3.7143852464       -1.8253487236
 H         -3.9156057879        3.3360284460       -1.9482726503
 H         -6.2269013501        1.4162964699       -1.5209000532
 H         -4.9971273032        1.4287974351       -2.7786361205
 O         -3.3567942453        0.1450006126       -1.7799846670
 C         -2.3890754762       -0.7436754855       -1.3501348947
 O         -1.6044488566       -1.0953235392       -2.2560704037
 O         -3.4341659183       -0.9639992840        2.0979011747
 C         -1.3990147908       -2.1132100626        0.5629270140
 C         -0.0683483424       -1.4574609082        0.8478381026
 C          0.4203615794       -1.3755683423        2.1465553617
 C          1.6500702223       -0.7939995069        2.4013922654
 C          2.4143000853       -0.2789062637        1.3698076435
 C          1.9336140711       -0.3526572741        0.0688477892
 C          0.7041758022       -0.9443179515       -0.1844233000
 H          0.3329212121       -0.9939659691       -1.1975135390
 N          2.6872246194        0.1921315331       -0.9856075576
 S          4.3001052857       -0.2505190619       -1.1211599454
 O          4.6362291745       -0.0494139626       -2.5137764068
 O          4.5344677009       -1.5731022903       -0.5887076182
 C          5.1591655749        0.9622919454       -0.1399082601
 C          4.9353212412        2.2974668921       -0.4136580293
 C          5.6059686400        3.2546090760        0.3307530541
 C          6.4870132618        2.8628957563        1.3279073994
 C          6.7034977178        1.5184705400        1.5880722201
 C          6.0345017790        0.5557930843        0.8479798299
 H          6.1664904948       -0.5007456339        1.0186279767
 H          7.3889536267        1.2161144966        2.3634156864
 H          7.0078558267        3.6103037410        1.9053230929
 H          5.4395327122        4.3010612992        0.1315533267
 H          4.2446403139        2.5593586924       -1.1979768286
 H          2.2221195981        0.1305053646       -1.8802073516
 H          3.3721475353        0.1764382159        1.5618309894
 H          2.0169135307       -0.7384606671        3.4148866514
 H         -0.1762676490       -1.7636815680        2.9592350078
 H         -1.8271954659       -2.4272920598        1.5243258164
 C         -1.2121140383       -3.3453320955       -0.3018339990
 C         -0.6711702145       -4.5953567635        0.3219356892
 C         -2.1079982655       -4.5285511276       -0.0992238774
 H         -2.4210482976       -5.0914202998       -0.9657845850
 H         -2.8621079601       -4.4577616613        0.6710481203
 H          0.0078809201       -5.2053112006       -0.2539788494
 H         -0.4511404349       -4.5716292647        1.3784565699
 H         -0.9119435784       -3.1189887356       -1.3169115344
