  62
        -98.95045675
 C         -1.7603412898       -1.2830318801       -0.2388477011
 C         -2.8566972601       -0.6465172406        0.3864208790
 C         -3.2737645904        0.6349722595       -0.1961291705
 C         -2.6087552904        1.1228407601       -1.2594610503
 C         -2.9108340607        2.4288510203       -1.9348842198
 C         -2.0751703710        3.5729156403       -1.3458624793
 C         -2.1136924212        3.6472274697        0.1805048808
 H         -1.5932504610        2.7772198396        0.5890358105
 H         -1.5304529714        4.5228819497        0.4759730611
 C         -3.5231338712        3.7457014490        0.7807950207
 H         -3.5126791915        4.5039897187        1.5667468610
 H         -4.2277482913        4.0791695492        0.0176191508
 C         -4.0384541410        2.4538957287        1.4180642601
 H         -4.9221417611        2.6979205582        2.0142311602
 H         -3.2807836509        2.0592434386        2.1004744701
 C         -4.4373134406        1.3393534289        0.4426197697
 H         -4.9740405204        0.5748271786        1.0123654294
 H         -5.1123398406        1.7392598891       -0.3169519702
 H         -1.0335739910        3.4339045806       -1.6453162092
 H         -2.4322224213        4.5142738703       -1.7690440489
 H         -2.6733568006        2.3281678207       -2.9955948798
 H         -3.9716238908        2.6489398999       -1.8291296898
 O         -1.5591663702        0.4839428806       -1.8331200204
 C         -1.0900227099       -0.7133215695       -1.3202283009
 O         -0.0947191397       -1.1728225290       -1.9143975410
 O         -3.4595153100       -1.1299231712        1.3845173088
 C         -1.2438164395       -2.5961550002        0.3206269984
 C          0.2123827404       -2.4595078199        0.6915459086
 C          1.1622731807       -3.4438546796        0.4481431583
 C          2.4891068106       -3.2389437294        0.7866420784
 C          2.9010291402       -2.0444771395        1.3488360089
 C          1.9557670900       -1.0588492698        1.6065702892
 C          0.6229308800       -1.2850095901        1.3088440291
 H         -0.0980395502       -0.5087494603        1.5200152593
 N          2.3165529396        0.1950892901        2.1463227397
 S          2.0926588393        1.5145537604        1.1314976902
 O          2.5861357290        2.6526006102        1.8779189007
 O          0.7208243293        1.5783514302        0.7032167602
 C          3.1907627295        1.1861028412       -0.2354847798
 C          4.4574524994        1.7388202215       -0.2040985595
 C          5.3533487995        1.4255336922       -1.2127105095
 C          4.9726291798        0.5579545525       -2.2258577499
 C          3.6999555300        0.0091830021       -2.2398570502
 C          2.7949659698        0.3211606015       -1.2358013002
 H          1.7984177099       -0.0937292588       -1.2346762804
 H          3.3948930002       -0.6659571077       -3.0232713705
 H          5.6700844199        0.3083652629       -3.0098984200
 H          6.3426087194        1.8540473824       -1.2043632693
 H          4.7058625791        2.4094480413        0.6028177608
 H          3.2594668696        0.2218796002        2.5114684298
 H          3.9405355302       -1.8720770793        1.5842069891
 H          3.2153502308       -4.0126246791        0.5898655182
 H          0.8645732210       -4.3703029495       -0.0150835621
 H         -1.8229323096       -2.7734249707        1.2396259883
 C         -1.5116404292       -3.7271712299       -0.6512513620
 C         -1.7637491188       -5.1169866701       -0.1494480326
 C         -2.8902326590       -4.3102048802       -0.7193650524
 H         -3.2875708189       -4.5837195199       -1.6852186425
 H         -3.6296376192       -3.9088458607       -0.0416952523
 H         -1.3901567086       -5.9493255998       -0.7266600629
 H         -1.7453043989       -5.2745943005        0.9183315273
 H         -0.9723302391       -3.6070474894       -1.5843155320
