  62
        -98.93408225
 C          1.8890339899        1.1294428114        0.3934980201
 C          2.0979495401       -0.2681151686        0.2995352301
 C          3.5048242301       -0.7035275284        0.3237997502
 C          4.4821440400        0.2113813617        0.4528014103
 C          5.9520517200       -0.0912605881        0.4352976604
 C          6.5195648601       -0.0048952380       -0.9884281696
 C          5.7044029703       -0.7772841480       -2.0255999097
 H          4.7225383502       -0.3096453882       -2.1284709997
 H          6.2138052104       -0.6700778379       -2.9857044096
 C          5.5223610905       -2.2679278181       -1.7073725397
 H          5.7025034606       -2.8449835780       -2.6168504198
 H          6.2632333305       -2.5833752480       -0.9718329897
 C          4.1248922805       -2.6448894783       -1.2113549299
 H          4.0412780107       -3.7350311083       -1.2255352599
 H          3.3716649405       -2.2519123484       -1.8991767099
 C          3.7705164803       -2.1779750984        0.2062742401
 H          2.8386693604       -2.6733538385        0.4956949501
 H          4.5537353103       -2.4863289583        0.9020188202
 H          7.5442141702       -0.3806701478       -0.9749858295
 H          6.5461987100        1.0454539121       -1.2873606196
 H          6.1177082202       -1.0859652381        0.8442883803
 H          6.4610769999        0.6404876120        1.0648220604
 O          4.2387667098        1.5420557617        0.5680472903
 C          2.9446497597        2.0320443115        0.5298623402
 O          2.8616911396        3.2730288315        0.6336865303
 O          1.1727283302       -1.1139893487        0.2063236900
 C          0.4855927198        1.7255909012        0.3456702100
 C         -0.4025034802        0.9743601410        1.3069491500
 C         -0.0521258003        1.0880768910        2.6545230000
 C         -0.7595763102        0.4314318109        3.6399793299
 C         -1.8520495201       -0.3522091093        3.3126684198
 C         -2.2201781900       -0.4679877993        1.9789078498
 C         -1.5026408200        0.1941532309        0.9892696899
 H         -1.8036380499        0.0284825409       -0.0269604202
 N         -3.3524311899       -1.2096087994        1.6290523797
 S         -3.7111285597       -1.7458911594        0.0950715396
 O         -4.8415510296       -2.6282795096        0.3004284595
 O         -2.5790103996       -2.3272235692       -0.5854165103
 C         -4.2667636298       -0.2884937095       -0.7653869403
 C         -3.9643807698       -0.1470957794       -2.1051009303
 C         -4.4285092099        0.9677167806       -2.7853683203
 C         -5.1849253901        1.9175846305       -2.1172293803
 C         -5.4817937201        1.7607174304       -0.7717367804
 C         -5.0232557100        0.6467972404       -0.0868226204
 H         -5.2354389701        0.4953168603        0.9583283796
 H         -6.0681520503        2.5027158603       -0.2540482004
 H         -5.5430828202        2.7858013304       -2.6473770503
 H         -4.1943352498        1.0907462506       -3.8303078903
 H         -3.3617693196       -0.9026078693       -2.5836316603
 H         -3.7592041299       -1.7766959695        2.3559043196
 H         -2.4077113301       -0.8725155894        4.0775908598
 H         -0.4587935703        0.5274800309        4.6725153899
 H          0.8055465496        1.6939002411        2.9159590001
 H          0.5993544296        2.7403381812        0.7630879301
 C          0.1006282499        1.9400046612       -1.1109288900
 C         -0.4536646299        0.9058257711       -2.0407376200
 C         -1.2978321401        2.0781660510       -1.6305857001
 H         -1.4846208702        2.8437393310       -2.3688054001
 H         -2.1193400701        1.9244446508       -0.9502387801
 H         -0.0674890299        0.8891043612       -3.0505142800
 H         -0.6615294998       -0.0804031089       -1.6562425901
 H          0.8314906698        2.6122900113       -1.5572703599
