  62
        -98.94294774
 C          1.9773680878        1.0548187776        0.3924085359
 C          2.5790674195        0.0110064697        1.1434535267
 C          3.9995430099       -0.2436069513        0.8839544478
 C          4.6598062542        0.5188660678       -0.0059986147
 C          6.1172396927        0.4069012843       -0.3624215187
 C          6.4202651836       -0.6593950995       -1.4238298153
 C          6.3085202796       -2.1064198547       -0.9420820750
 H          6.7554063967       -2.7366433899       -1.7135445100
 H          6.9006218651       -2.2333491321       -0.0352356988
 C          4.8702982986       -2.5809482938       -0.6904086501
 H          4.1697889203       -1.9020002304       -1.1824659633
 H          4.7275692677       -3.5664940243       -1.1393861528
 C          4.4895767253       -2.6977248565        0.7857342168
 H          3.4414447266       -3.0030107083        0.8461990857
 H          5.0936956647       -3.4744137096        1.2602113153
 C          4.6504821996       -1.3975824378        1.5844590913
 H          5.7063938179       -1.1911527147        1.7587786030
 H          4.1537345274       -1.5244153788        2.5496403483
 H          5.7517935097       -0.5059772591       -2.2740648353
 H          7.4427896428       -0.4927468308       -1.7702118866
 H          6.6992007486        0.2026598444        0.5367499224
 H          6.4160254873        1.3803677834       -0.7571000581
 O          4.0567071594        1.5251719764       -0.6879306738
 C          2.7054644416        1.8057563878       -0.5314209211
 O          2.3088717322        2.7354615869       -1.2597119643
 O          1.9574163407       -0.6704819482        2.0029581475
 C          0.5005310051        1.3131153352        0.6445976169
 C         -0.3472734311        0.6574454532       -0.4195598331
 C         -0.3443310821        1.1081430053       -1.7364575074
 C         -1.1160721474        0.4766344287       -2.6938558518
 C         -1.9180344260       -0.6002549525       -2.3572144653
 C         -1.9280572094       -1.0591434378       -1.0461960909
 C         -1.1405613456       -0.4324313191       -0.0891734243
 H         -1.1466734535       -0.8123245604        0.9217632680
 N         -2.7335447875       -2.1518506547       -0.6719002090
 S         -3.8165051763       -1.9462656453        0.5887160010
 O         -3.1072839560       -1.7839981873        1.8310353063
 O         -4.7089146248       -3.0801508351        0.4987364790
 C         -4.6872795984       -0.4477582902        0.1681995351
 C         -4.1619345836        0.7676164829        0.5585684609
 C         -4.7939685592        1.9319420180        0.1521717845
 C         -5.9351884441        1.8610795880       -0.6317781256
 C         -6.4542560591        0.6322259600       -1.0109974080
 C         -5.8222276916       -0.5350689452       -0.6143107581
 H         -6.1931751335       -1.5111739541       -0.8824001835
 H         -7.3447125284        0.5810308553       -1.6166260967
 H         -6.4232501394        2.7698165555       -0.9468719934
 H         -4.3881177065        2.8862607137        0.4471238850
 H         -3.2751503898        0.7829420155        1.1703696777
 H         -3.1994972101       -2.5975277081       -1.4499752894
 H         -2.5239875392       -1.0892776932       -3.1050332013
 H         -1.0987977005        0.8314220804       -3.7131542749
 H          0.2877757554        1.9400185542       -2.0052267039
 H          0.2846187686        0.8080140572        1.5964727007
 C          0.1649198011        2.7831417435        0.7974892203
 C         -1.0309726547        3.1781228231        1.6086529194
 C          0.3492295349        3.4366218998        2.1327068142
 H          0.7121812069        4.4528893810        2.1627636166
 H          0.7103158967        2.8210468092        2.9441731946
 H         -1.6201639796        4.0203209366        1.2805458464
 H         -1.6040014382        2.3904814350        2.0751370953
 H          0.4001321875        3.3752242663       -0.0766522717
