  62
        -98.94297854
 C         -2.6763917293       -1.1932350741        0.1267840840
 C         -2.7143011302       -0.1922289978       -0.8732439245
 C         -3.9264579566        0.6392303020       -0.8968476768
 C         -4.9109381335        0.3965877394       -0.0122117461
 C         -6.1718467400        1.2012702478        0.1098845632
 C         -6.0037671621        2.3455519809        1.1194661438
 C         -4.7417011612        3.1806531269        0.9027596104
 H         -4.7449097398        3.9746053045        1.6527495788
 H         -3.8643914938        2.5592317453        1.0969222056
 C         -4.6223474660        3.7997577196       -0.4968374153
 H         -5.5975786161        3.8022680331       -0.9850612319
 H         -4.3090161081        4.8406908502       -0.3932256473
 C         -3.6012616102        3.1160760198       -1.4081852543
 H         -2.6451644816        3.0258515965       -0.8861682061
 H         -3.4397037482        3.7575066754       -2.2786081864
 C         -3.9966645784        1.7287227125       -1.9294676799
 H         -4.9911792931        1.7729325411       -2.3779655009
 H         -3.2799010849        1.4496178182       -2.7072697313
 H         -6.8831092674        2.9895083286        1.0606701294
 H         -5.9627263515        1.9175780252        2.1238343655
 H         -6.4384622201        1.6003559609       -0.8667375506
 H         -6.9697702946        0.5404403151        0.4527503941
 O         -4.8471653697       -0.5914833342        0.9172856113
 C         -3.7272579870       -1.3998389440        1.0197267040
 O         -3.7856979580       -2.2504990603        1.9310899482
 H          0.9754021041       -2.1882963164       -1.0529385294
 C          0.9402929247       -1.4402593202       -0.2762063162
 C         -0.2186651392       -1.2625953974        0.4615682994
 C         -0.2239208876       -0.2966290935        1.4648888636
 C          0.8920950664        0.4806481568        1.7048298548
 C          2.0417968337        0.3123783336        0.9522149181
 C          2.0644426319       -0.6570581628       -0.0396276210
 N          3.2234495150       -0.8314218237       -0.8113570802
 S          4.7150064371       -0.9006004984       -0.0503347385
 O          5.5659084137       -1.6360882665       -0.9601673307
 O          4.6019745267       -1.4275841139        1.2898016310
 C          5.2539343340        0.7956395115        0.0019927675
 C          5.6480864776        1.3553797996        1.2014160819
 C          6.0781041281        2.6731884319        1.2171516312
 C          6.1072860722        3.4034697493        0.0390839878
 C          5.7105776122        2.8257117180       -1.1578734753
 C          5.2805936843        1.5086882084       -1.1804987489
 H          4.9669667419        1.0239710096       -2.0899586480
 H          5.7341692654        3.3970769284       -2.0718780802
 H          6.4414350341        4.4289149226        0.0535482837
 H          6.3872978907        3.1239384911        2.1465382401
 H          5.6038351581        0.7512519168        2.0937473444
 H          3.1415529043       -1.5383912226       -1.5271986474
 H          2.9146297722        0.9183542735        1.1319852858
 H          0.8682125550        1.2281243387        2.4835300006
 H         -1.1217596883       -0.1638149746        2.0540159966
 C         -1.4603480400       -2.0936986916        0.2461366492
 H         -1.6195143328       -2.7027356904        1.1483268350
 C         -1.3813101368       -3.0156929659       -0.9529838296
 C         -0.7322925489       -4.3609113906       -0.8309097458
 C         -2.2212332530       -4.2559557560       -0.9651404567
 H         -2.6791112763       -4.5601460501       -1.8943885654
 H         -2.8309864454       -4.4491292221       -0.0944094365
 H         -0.3280700512       -4.6362189978        0.1317859246
 H         -0.1697977322       -4.7428826602       -1.6699493603
 H         -1.2749043657       -2.4759325759       -1.8871961356
 O         -1.7871741653       -0.0023717229       -1.7028325940
