  62
        -98.93937754
 C          2.3555300488       -1.2625015329        0.0920729366
 C          3.3155649086       -0.7704252373       -0.8277857268
 C          4.1820970197        0.3288679718       -0.3710833064
 C          4.0121304214        0.8285163107        0.8670212670
 C          4.7549978001        1.9140025101        1.6177334318
 C          5.7064339479        2.8573981951        0.8868049913
 C          5.0271123937        3.8240732880       -0.0828312389
 H          5.8041021967        4.3699159922       -0.6223356716
 H          4.4521589854        4.5502195510        0.4975437568
 C          4.0748018456        3.1875143311       -1.0922528775
 H          3.6544508144        3.9891349719       -1.7058313702
 H          3.2401407848        2.7185825644       -0.5660261334
 C          4.7071865919        2.1651111954       -2.0343521606
 H          5.5600113852        2.6153402071       -2.5459187892
 H          3.9594628943        1.9093698416       -2.7898427744
 C          5.1670232065        0.8532361300       -1.3761333480
 H          6.1522851131        0.9593983705       -0.9288875499
 H          5.2408199173        0.0919257322       -2.1580300262
 H          6.4827935365        2.2910266564        0.3810925614
 H          6.2015248527        3.4565175469        1.6558441868
 H          5.3155599972        1.3982416279        2.4053517663
 H          3.9850454034        2.5039345697        2.1256684390
 O          3.0686924715        0.3279697471        1.7163992308
 C          2.2195606041       -0.7078549071        1.3629121480
 O          1.4214640727       -1.0245634069        2.2680992169
 O          3.4541610944       -1.2423545299       -1.9874045165
 C          1.4494459317       -2.3882785895       -0.3819764337
 C          0.0917697152       -1.8141979963       -0.7067761865
 C         -0.2283379845       -1.4759416840       -2.0176055755
 C         -1.4437889819       -0.8878882950       -2.3177314951
 C         -2.3605666647       -0.6163104846       -1.3174727719
 C         -2.0429339985       -0.9348386726       -0.0040929296
 C         -0.8326442695       -1.5448558747        0.2921041418
 H         -0.5865450507       -1.7660122319        1.3193290637
 N         -2.9584973316       -0.6363435661        1.0241734356
 S         -3.4766453686        0.9605948094        1.1275707970
 O         -2.4982892561        1.8747673979        0.5830727608
 O         -3.8434534048        1.1574035160        2.5132877382
 C         -4.9550953909        0.9835306679        0.1337042126
 C         -5.0594032941        1.8576741464       -0.9304314486
 C         -6.2216278290        1.8573651877       -1.6863352247
 C         -7.2533970925        0.9885707437       -1.3656194552
 C         -7.1342848540        0.1192017815       -0.2913996808
 C         -5.9755975670        0.1149612457        0.4684906839
 H         -5.8431287008       -0.5404914373        1.3129152711
 H         -7.9389122682       -0.5545846952       -0.0447877248
 H         -8.1557001044        0.9892429461       -1.9565132614
 H         -6.3161540302        2.5331574620       -2.5210924402
 H         -4.2286461015        2.5111878281       -1.1448437310
 H         -2.6406206641       -0.9499144091        1.9310897383
 H         -3.3058667999       -0.1498093506       -1.5419938141
 H         -1.6790620489       -0.6342935160       -3.3401680965
 H          0.4961848945       -1.6615790524       -2.7976280372
 H          1.8985323556       -2.7409081798       -1.3198896150
 C          1.3863132217       -3.5492088781        0.5887470231
 C          0.8603606084       -4.8678607307        0.1089622051
 C          2.3201597767       -4.7064134484        0.4059537780
 H          2.7255404819       -5.1834920843        1.2856539799
 H          3.0093703587       -4.6662806011       -0.4247956327
 H          0.2602444122       -5.4592217415        0.7832408347
 H          0.5584239775       -4.9361243431       -0.9251232753
 H          1.1619428286       -3.2549219913        1.6058413960
