  62
        -98.93659916
 C         -1.3502068797       -1.0892347273       -0.5417401774
 C         -2.4521493106       -1.2669347837        0.3325940591
 C         -3.4175626183       -0.1628378068        0.4182644288
 C         -3.1937254385        0.9534566480       -0.2981469821
 C         -4.1121975362        2.1400593005       -0.3762214857
 C         -5.3026803385        1.8267973638       -1.3050806078
 C         -6.6585742652        1.7836261003       -0.6000759700
 H         -6.9817637034        2.8054110629       -0.3902473248
 H         -7.3762190510        1.3473021345       -1.2980773423
 C         -6.7022378274        0.9996328180        0.7149928347
 H         -6.2907458640        1.6103676301        1.5200603562
 H         -7.7555248263        0.8381020061        0.9539540297
 C         -5.9840151496       -0.3560144463        0.7121008039
 H         -5.9130393515       -0.7517374892       -0.3012010077
 H         -6.5871884012       -1.0610284078        1.2877103847
 C         -4.5830344712       -0.3408970813        1.3517566165
 H         -4.5449897875        0.4247845289        2.1321007620
 H         -4.4077716460       -1.3077185455        1.8332836790
 H         -5.3525907797        2.5757851706       -2.0968630524
 H         -5.1130105766        0.8674562423       -1.7911091958
 H         -4.4602217631        2.3996054663        0.6212998801
 H         -3.5299693992        2.9744827697       -0.7683822470
 O         -2.1204158797        1.0979883476       -1.1135117124
 C         -1.1626485200        0.0983858151       -1.2502440611
 O         -0.2398107945        0.4019284901       -2.0273425998
 H          0.8459537414        0.0062405711        0.3284861767
 C          1.1934091889       -0.8782497080        0.8359304611
 C          0.6726626511       -2.1172395383        0.4919883910
 C          1.1107523098       -3.2415758108        1.1825986795
 C          2.0552723455       -3.1235622757        2.1868026288
 C          2.5721564917       -1.8868610631        2.5264319061
 C          2.1267550533       -0.7520428843        1.8546681058
 N          2.5917869321        0.5116440653        2.2258104792
 S          2.5362410247        1.8740365467        1.2684640505
 O          3.2621415046        2.8566484899        2.0464845430
 O          1.1737206464        2.2092711884        0.9403049358
 C          3.4940939841        1.4777079425       -0.1822727652
 C          2.8912193168        1.2418040405       -1.3999222999
 C          3.6945252492        0.9373486627       -2.4898898211
 C          5.0702342756        0.8661816172       -2.3453175612
 C          5.6598382352        1.1043968857       -1.1122626792
 C          4.8664715203        1.4146624547       -0.0214028813
 H          5.2850192087        1.6295467148        0.9483396100
 H          6.7308015208        1.0512769267       -1.0007026413
 H          5.6854119437        0.6262281531       -3.1981278598
 H          3.2289116012        0.7554246218       -3.4451579972
 H          1.8171429971        1.2856136536       -1.4959852024
 H          3.3444871426        0.5297793292        2.8957302153
 H          3.2988068224       -1.7924250081        3.3184355839
 H          2.3881905542       -4.0031032386        2.7164151486
 H          0.6901729560       -4.2074160178        0.9447369556
 C         -0.3559665643       -2.2345572418       -0.6065799064
 H         -0.9507089432       -3.1383915205       -0.3955347922
 C          0.2760104087       -2.4154567108       -1.9793320311
 C          1.6968724282       -2.0554589534       -2.2794513570
 C          1.2908450695       -3.4952154992       -2.2145192590
 H          1.2358953617       -4.0593402893       -3.1331196233
 H          1.6205854968       -4.0679119184       -1.3617476153
 H          1.9071121880       -1.6148071943       -3.2411162328
 H          2.2984216246       -1.6533162787       -1.4787483641
 H         -0.4402980437       -2.2411062212       -2.7756021526
 O         -2.6216714900       -2.3176379554        1.0102696797
