  62
        -98.94098373
 C          1.5119269564        0.7194767518        0.4304395279
 C          2.5844559310        0.8949100999       -0.4793158573
 C          3.4871240557       -0.2576428906       -0.6250071099
 C          3.2356895480       -1.4023812673        0.0332663304
 C          4.0441864603       -2.6688330263       -0.0457109525
 C          5.2637382105       -2.6894667416        0.8859795891
 C          6.4231786451       -1.7873862994        0.4612719040
 H          7.2841029412       -2.0625464816        1.0738860134
 H          6.6831276283       -1.9959065607       -0.5769874372
 C          6.1540478886       -0.2860498690        0.6349661938
 H          5.3046115265       -0.1437496154        1.3073072548
 H          7.0178904896        0.1863639698        1.1082733509
 C          5.8847550226        0.4646057055       -0.6693798521
 H          6.7792072712        0.4420975222       -1.2958069270
 H          5.6709641945        1.5085852726       -0.4261282902
 C          4.7049530263       -0.0846153585       -1.4818599319
 H          4.9791065425       -1.0291302261       -1.9509031157
 H          4.4612626203        0.6386190975       -2.2637371001
 H          5.6278337549       -3.7188012810        0.9232600082
 H          4.9392482320       -2.4158900249        1.8927643882
 H          3.3770615117       -3.4829534026        0.2454007056
 H          4.3677772967       -2.8344096317       -1.0736252185
 O          2.1652025989       -1.5475466750        0.8599634258
 C          1.3050335994       -0.4895385132        1.0993101688
 O          0.3984306950       -0.7463579785        1.9178867926
 O          2.7946306964        1.9410407530       -1.1428182290
 C          0.4922788412        1.8066976719        0.7327794840
 C         -0.6422906174        1.7121878309       -0.2544805120
 C         -0.4151500635        1.8254893721       -1.6237918663
 C         -1.4630833786        1.7113250775       -2.5175663316
 C         -2.7484511475        1.4583685851       -2.0689166684
 C         -2.9828191605        1.3304380009       -0.7057800645
 C         -1.9326161815        1.4712228052        0.1922573387
 H         -2.1313729467        1.3667862746        1.2482873914
 N         -4.2755913168        1.0646334374       -0.2180268459
 S         -4.4812729251       -0.2122224434        0.8493459942
 O         -5.9071626335       -0.4576386983        0.8452594129
 O         -3.8982186523        0.1143643105        2.1239596599
 C         -3.6330638043       -1.5737551197        0.0703640527
 C         -2.3026644929       -1.8154328727        0.3449781883
 C         -1.6545670224       -2.8286737350       -0.3453316061
 C         -2.3389502131       -3.5782489344       -1.2885523365
 C         -3.6782464130       -3.3261082478       -1.5474951758
 C         -4.3307044840       -2.3115775982       -0.8676556291
 H         -5.3723515194       -2.0871572318       -1.0319308825
 H         -4.2111445557       -3.9141646379       -2.2772193913
 H         -1.8259490776       -4.3638817945       -1.8207225947
 H         -0.6129768617       -3.0155980466       -0.1334619871
 H         -1.7793610271       -1.2311269771        1.0859124064
 H         -4.9826752690        1.0264486931       -0.9390865551
 H         -3.5646938239        1.3596981248       -2.7683311921
 H         -1.2767816188        1.8092399175       -3.5762722630
 H          0.5905680144        2.0050167010       -1.9725664919
 H          0.0854778199        1.5537322377        1.7251017151
 C          1.1070159254        3.1961852494        0.8360985653
 C          0.7364719620        4.3398484235       -0.0556789149
 C          0.2796722374        4.3285531849        1.3698102247
 H          0.7294942122        5.0168299837        2.0694263720
 H         -0.7650843392        4.1283451928        1.5587400524
 H          1.5228195771        5.0207256788       -0.3439567511
 H         -0.0008217331        4.1753901573       -0.8251879668
 H          2.1415282983        3.1614258752        1.1606913158
