  62
        -98.94042381
 C          2.4470657321        1.0749647284        0.0114860362
 C          2.4252926823       -0.3187392272        0.2582350743
 C          3.7190258815       -0.9221032764        0.6037900931
 C          4.8168153367       -0.1491125430        0.6925281629
 C          6.2010817818       -0.6144523351        1.0553065002
 C          6.9972720778       -1.1840335291       -0.1268242158
 C          6.5413276536       -2.5591649972       -0.6161776010
 H          7.3130871933       -2.9303119980       -1.2933454484
 H          6.4913817405       -3.2464691098        0.2288183584
 C          5.1969201785       -2.5542583222       -1.3572994720
 H          4.9518817487       -1.5344671042       -1.6632061400
 H          5.2808903380       -3.1496496521       -2.2692822646
 C          4.0275217448       -3.1220818146       -0.5526421225
 H          4.1991167731       -4.1824087289       -0.3539340555
 H          3.1203234458       -3.0358505422       -1.1567090515
 C          3.7747242572       -2.4092317031        0.7823417518
 H          2.8036682359       -2.7329063374        1.1656390471
 H          4.5447624685       -2.6787214918        1.5049058086
 H          8.0395744428       -1.2626654402        0.1904798321
 H          6.9538196321       -0.4706338103       -0.9528979178
 H          6.1406858472       -1.3601992012        1.8483154480
 H          6.7318548177        0.2597107248        1.4382689644
 O          4.7879533045        1.1929770613        0.4747945024
 C          3.6135741871        1.8325499054        0.1124265354
 O          3.7335631080        3.0599345535       -0.0777434511
 O          1.3833792281       -1.0234109413        0.1984971804
 C          1.1703793795        1.7908046225       -0.3887005738
 C          0.0907025485        1.5536515875        0.6390715830
 C          0.3903912691        1.7396550078        1.9864275084
 C         -0.5676732425        1.5272164088        2.9579582022
 C         -1.8447220115        1.1253505913        2.6077024895
 C         -2.1604737117        0.9555260885        1.2652291921
 C         -1.1969741388        1.1779927230        0.2906585690
 H         -1.4666850588        1.0325434577       -0.7413507124
 N         -3.4676767453        0.6015239264        0.8855621597
 S         -3.7198742637       -0.4132344900       -0.4398979730
 O         -2.9711722695       -1.6409651802       -0.2919597004
 O         -3.4993664249        0.3337650945       -1.6521794038
 C         -5.4641043050       -0.7325705916       -0.2440065703
 C         -6.3680981989        0.1982915206       -0.7195697363
 C         -7.7230078651       -0.0324487566       -0.5423440685
 C         -8.1494407965       -1.1830942408        0.1042250123
 C         -7.2307033372       -2.1095774210        0.5739904848
 C         -5.8741026517       -1.8842068672        0.4007797009
 H         -5.1241028770       -2.5807789498        0.7401824098
 H         -7.5649853428       -3.0050010151        1.0728491876
 H         -9.2045487293       -1.3607420422        0.2402212361
 H         -8.4405029178        0.6836850219       -0.9091916642
 H         -5.9899975913        1.0727191442       -1.2228258572
 H         -4.0236587423        0.2940841166        1.6726095698
 H         -2.5906009718        0.9480933585        3.3677745543
 H         -0.3169416526        1.6666483208        3.9989732292
 H          1.3924610550        2.0423305616        2.2605819984
 H          1.4099767359        2.8647945309       -0.3926529931
 C          0.7653883215        1.3791565278       -1.7890832083
 C          0.0050868319        2.3270009764       -2.6654134929
 C          1.4411805126        2.0192890318       -2.9627752669
 H          1.6727707311        1.4072443210       -3.8216216535
 H          2.1815878994        2.7777246851       -2.7526223385
 H         -0.7580938380        1.9248389910       -3.3150339636
 H         -0.2305284721        3.2995327074       -2.2601657555
 H          0.5325459954        0.3216409731       -1.8614372574
