  62
        -98.94795942
 C         -1.2554045015       -0.7581094081        0.3905798353
 C         -2.0980622626       -0.5815060553       -0.7326419375
 C         -3.0664382831        0.5175844666       -0.6330551338
 C         -3.0607161799        1.3207638133        0.4461036868
 C         -3.9679285567        2.4988115226        0.6777207356
 C         -5.3378772558        2.1277317786        1.2624925339
 C         -6.2963254864        1.4395673832        0.2895919016
 H         -6.3735363019        2.0330876871       -0.6218830375
 H         -7.2813086137        1.4355423097        0.7605275599
 C         -5.9122517375       -0.0039343271       -0.0642119350
 H         -6.7970662036       -0.6413894688       -0.0027424466
 H         -5.1946275789       -0.3796926965        0.6686094554
 C         -5.3245692045       -0.1781382563       -1.4646540287
 H         -6.0798240192        0.0713661328       -2.2131276558
 H         -5.0547332850       -1.2290997055       -1.5949431139
 C         -4.0730164735        0.6679701771       -1.7334814472
 H         -4.3455877771        1.7156091825       -1.8607747776
 H         -3.6082695697        0.3129719168       -2.6567675360
 H         -5.8054264276        3.0532616242        1.6064543318
 H         -5.1831540710        1.4892819774        2.1353501678
 H         -3.4534743911        3.1513220510        1.3868891492
 H         -4.1039603156        3.0448681124       -0.2564350535
 O         -2.1857590052        1.1599481267        1.4747544923
 C         -1.2704968555        0.1201710525        1.4735960118
 O         -0.5296735795        0.0854204211        2.4786121027
 H          0.8536365229        0.4395714298       -0.3132963816
 C          1.2626289940       -0.3745543316       -0.8916981233
 C          0.7879998242       -1.6632550880       -0.6912639396
 C          1.3060139505       -2.6879923483       -1.4730138959
 C          2.2646983323       -2.4157722551       -2.4340788188
 C          2.7492094194       -1.1328685709       -2.6154539415
 C          2.2415262413       -0.1022874805       -1.8327459891
 N          2.7076507332        1.2154821577       -1.9616183370
 S          2.8737159788        2.1469906924       -0.5805733423
 O          1.5882837848        2.6268343224       -0.1377206757
 O          3.8295330928        3.1682887595       -0.9551723842
 C          3.6086937044        1.0475092670        0.6177032380
 C          4.9182998955        0.6651938855        0.3944012159
 C          5.5173411269       -0.2294409812        1.2647299364
 C          4.7974225168       -0.7313286852        2.3387667810
 C          3.4876740953       -0.3332867389        2.5528645815
 C          2.8824140789        0.5650967289        1.6868016054
 H          1.8610650357        0.8801942115        1.8369972508
 H          2.9197871964       -0.7169099369        3.3857328675
 H          5.2588803816       -1.4338494791        3.0146425423
 H          6.5383438600       -0.5350478922        1.1029280889
 H          5.4470902341        1.0866819031       -0.4450414710
 H          3.4875082196        1.3330077048       -2.5916502167
 H          3.5040138205       -0.9264434051       -3.3583901374
 H          2.6498924595       -3.2183877866       -3.0442354914
 H          0.9539032255       -3.6971063805       -1.3358730226
 C         -0.2310526013       -1.8771697684        0.4025897031
 H          0.2981340093       -1.7916284151        1.3640181838
 C         -0.9136039521       -3.2276775620        0.3408679045
 C         -0.2939856999       -4.4177562465        1.0079241722
 C         -1.5207608699       -3.7860279703        1.5917948931
 H         -2.4605659706       -4.3124449544        1.5189740185
 H         -1.4176146635       -3.2023835235        2.4954673838
 H          0.6431891442       -4.2710935601        1.5231379514
 H         -0.3938995265       -5.3835238933        0.5359607504
 H         -1.4518485595       -3.3793844277       -0.5873154993
 O         -2.0470021426       -1.2996151416       -1.7650738581
