  62
        -98.94491908
 C          1.9582829962        0.8530376218        0.0717570749
 C          2.2588209816       -0.1105265805        1.0616783205
 C          2.3612156575       -1.4993124066        0.5975647331
 C          2.1333970918       -1.7762468839       -0.6995291003
 C          2.2374058083       -3.1418131658       -1.3142478074
 C          3.6513284037       -3.4069344900       -1.8504691377
 C          4.7607753190       -3.0842974944       -0.8495261904
 H          4.7683946470       -2.0080746956       -0.6629019367
 H          5.7110800898       -3.3362393607       -1.3248651756
 C          4.6442962593       -3.8286108996        0.4878542688
 H          5.6285032475       -4.2144980955        0.7611372033
 H          3.9782752882       -4.6850838366        0.3782752935
 C          4.1663078641       -2.9631659151        1.6552455154
 H          4.7727489335       -2.0557906836        1.7112892556
 H          4.3255988589       -3.5218800380        2.5812716552
 C          2.6888815027       -2.5510616054        1.6201355216
 H          2.4409948712       -2.1099166147        2.5903422815
 H          2.0604712369       -3.4331761357        1.4781208463
 H          3.8031524997       -2.7925102124       -2.7407644869
 H          3.7170104820       -4.4558618352       -2.1449042433
 H          1.5243006492       -3.1980989622       -2.1386385389
 H          1.9720163010       -3.8888820730       -0.5684397153
 O          1.8299198884       -0.8261660713       -1.6200727223
 C          1.7223749114        0.5069990994       -1.2589689600
 O          1.4330458296        1.2736735270       -2.1981408015
 O          2.4314397258        0.1789519679        2.2783204662
 C          1.7857808209        2.3042035492        0.4813372613
 C          0.3842332876        2.7551286809        0.1486482015
 C          0.0890358810        3.9856268269       -0.4235095250
 C         -1.2184581516        4.3143162690       -0.7384461709
 C         -2.2505691222        3.4253672709       -0.5036823634
 C         -1.9673606865        2.1993966108        0.0890117586
 C         -0.6628183238        1.8859183470        0.4286058342
 H         -0.4560574578        0.9290063698        0.8871682491
 N         -2.9913040281        1.2755774375        0.3670955695
 S         -2.6290188206       -0.3698621738        0.2358472843
 O         -2.0135389505       -0.8081558668        1.4646706615
 O         -1.8967022720       -0.6349384489       -0.9821635742
 C         -4.2782401852       -1.0412805755        0.1277282726
 C         -5.0168913384       -1.1701650533        1.2890170162
 C         -6.3119932115       -1.6565578989        1.2084738994
 C         -6.8443629180       -2.0033933413       -0.0246087449
 C         -6.0904478551       -1.8707161828       -1.1808962558
 C         -4.7947513781       -1.3832072609       -1.1075494808
 H         -4.1675851298       -1.2685537293       -1.9773349971
 H         -6.5050925505       -2.1441688016       -2.1377239082
 H         -7.8523163664       -2.3822646376       -0.0847455129
 H         -6.9000507668       -1.7634872081        2.1055750580
 H         -4.5560940077       -0.8962218684        2.2236567955
 H         -3.8550910560        1.4986716984       -0.1094411960
 H         -3.2654692772        3.6734842955       -0.7747183312
 H         -1.4336096961        5.2703735757       -1.1911341392
 H          0.8839412278        4.6813850950       -0.6368094112
 H          1.9028123567        2.3166882103        1.5759287116
 C          2.8638905996        3.1696820786       -0.1367298190
 C          3.3464456014        4.4003613785        0.5697676366
 C          4.2239659135        3.1885286522        0.4920493030
 H          5.0895401940        3.2153495120       -0.1526612029
 H          4.3626854644        2.5966585359        1.3851717176
 H          3.6140372696        5.2626584297       -0.0220157959
 H          2.8967401117        4.6382315571        1.5218457960
 H          2.8118969083        3.1832100125       -1.2197573144
