  62
        -98.93900224
 C          0.8256967625        1.7472045844       -0.2692354817
 C          1.0951315860        0.3835641384       -0.5406915256
 C          2.2919204775       -0.1819307227        0.1068344102
 C          3.0038392492        0.5733459023        0.9606564068
 C          4.2661509565        0.1563206623        1.6612016612
 C          5.4598115488        0.2126775685        0.6864975561
 C          6.0843730638       -1.1479023226        0.3767269694
 H          6.6876454470       -1.4639170181        1.2303974265
 H          6.7584735208       -1.0132093102       -0.4717602436
 C          5.0979371468       -2.2748179470        0.0565821042
 H          4.6748461575       -2.6663772917        0.9830262302
 H          5.6765096522       -3.0867048307       -0.3891460496
 C          3.9488060685       -1.9082206139       -0.8913426002
 H          3.7825945158       -2.7517290333       -1.5641142368
 H          4.2206632831       -1.0546404063       -1.5122266576
 C          2.6061192366       -1.6217596176       -0.1934188236
 H          2.5375981392       -2.2057526913        0.7295221893
 H          1.7938654592       -1.9493061867       -0.8488156914
 H          6.2355724590        0.8592672154        1.0993977751
 H          5.1216055353        0.6801288706       -0.2404836298
 H          4.1457835697       -0.8463671938        2.0659401175
 H          4.4186600140        0.8486871843        2.4896725115
 O          2.6871158212        1.8653517382        1.2366714847
 C          1.6061435653        2.4789890964        0.6300151747
 O          1.4451665865        3.6712799826        0.9634519414
 O          0.3912005530       -0.3488870630       -1.2858003091
 C         -0.3533777550        2.5098315743       -0.8565518153
 C         -1.5899141910        2.2761630411       -0.0222410683
 C         -2.2997018255        3.3359435516        0.5293946968
 C         -3.4137015717        3.1005282023        1.3158391199
 C         -3.8260601245        1.8074677936        1.5837054493
 C         -3.1208877557        0.7419244685        1.0360819510
 C         -2.0272655822        0.9821675621        0.2193038735
 H         -1.4880090707        0.1504507427       -0.2025982123
 N         -3.5008354339       -0.5861515787        1.2794640769
 S         -2.3158230446       -1.7576229959        1.4605338806
 O         -2.9690296287       -2.8113795525        2.2141980672
 O         -1.1178826431       -1.2190011248        2.0649751657
 C         -1.9932250847       -2.3734335184       -0.1773847948
 C         -2.8936250848       -2.1545163498       -1.1993215593
 C         -2.6274701038       -2.6921217698       -2.4485019875
 C         -1.4791091098       -3.4405519511       -2.6514070559
 C         -0.5891250929       -3.6566776697       -1.6118378927
 C         -0.8470783449       -3.1186385815       -0.3619704055
 H         -0.1739852068       -3.2480632084        0.4709430620
 H          0.3076453665       -4.2344611380       -1.7709326673
 H         -1.2722006264       -3.8528144129       -3.6266113177
 H         -3.3151113997       -2.5195632067       -3.2611005007
 H         -3.7725215636       -1.5592083020       -1.0143446568
 H         -4.2526017824       -0.7080225705        1.9421668637
 H         -4.6809729201        1.6219433040        2.2161212155
 H         -3.9567956221        3.9315622423        1.7398681924
 H         -1.9613063505        4.3469274348        0.3560291220
 H         -0.0912369962        3.5737371567       -0.7744648453
 C         -0.6235034292        2.1919018738       -2.3142502282
 C         -1.3681559518        3.1885295690       -3.1485868764
 C          0.0951973052        2.9611865068       -3.3796019207
 H          0.4049293730        2.4374048867       -4.2712148332
 H          0.7871031585        3.7280514910       -3.0619382687
 H         -2.0674304866        2.8221848201       -3.8840639016
 H         -1.6681031450        4.1125782427       -2.6779207967
 H         -0.8069463393        1.1415320841       -2.4956846325
