  62
        -98.93505105
 C          2.2913939799        0.7129922913       -0.0619179108
 C          3.5423442399        1.1089254617        0.4633292390
 C          4.7341354300        0.4508945118       -0.0996423109
 C          4.5805453601       -0.4792375485       -1.0608915907
 C          5.6000983502       -1.2792191886       -1.8453183005
 C          7.0592289102       -1.3372175581       -1.4004360706
 C          7.2989548705       -2.0861832677       -0.0898084904
 H          7.1125657007       -3.1496466178       -0.2592466201
 H          8.3505483205       -1.9718798674        0.1818352695
 C          6.4311118405       -1.6495888075        1.0877444895
 H          6.6958206507       -2.2718727072        1.9469793997
 H          5.3808122905       -1.8447267278        0.8611991397
 C          6.5855700702       -0.1891984274        1.5071802091
 H          6.0354073103       -0.0550558172        2.4424857491
 H          7.6371481902        0.0277449029        1.7042881389
 C          6.0509945999        0.8474167822        0.5041084388
 H          5.8690948998        1.7793934024        1.0472221786
 H          6.7814518898        1.0599490622       -0.2725839513
 H          7.6025608803       -1.8678609482       -2.1870374605
 H          7.4772338100       -0.3362175580       -1.3506503909
 H          5.5648351200       -0.8813450889       -2.8655557206
 H          5.2010772304       -2.2971278587       -1.8996183602
 O          3.3479070801       -0.8267795889       -1.5384846605
 C          2.1817452700       -0.2540406890       -1.0584304705
 O          1.1404228601       -0.6862684894       -1.5895570503
 O          3.6621060998        1.9804076920        1.3663659087
 C          1.0295380598        1.3655630512        0.4685320491
 C          0.0733213601        0.3291987412        1.0049952995
 C          0.5594799504       -0.6800061085        1.8324427897
 C         -0.2868096194       -1.6469838585        2.3379636801
 C         -1.6366371594       -1.6264735889        2.0341979102
 C         -2.1376939397       -0.6108588192        1.2289135699
 C         -1.2837778299        0.3607161508        0.7243021196
 H         -1.6955477502        1.1317864705        0.0962405594
 N         -3.5170756197       -0.5369515296        0.9640247700
 S         -4.0807396200        0.0165456199       -0.5268479801
 O         -3.5382400099       -0.7798699204       -1.6052232799
 O         -3.8732709903        1.4397211199       -0.6113813305
 C         -5.8213725699       -0.3181106204       -0.3250624398
 C         -6.3848450697       -1.4218006707       -0.9362125495
 C         -7.7340218897       -1.6777885310       -0.7459354593
 C         -8.4913956598       -0.8323914409        0.0505468405
 C         -7.9117996599        0.2724084794        0.6569656402
 C         -6.5643553500        0.5350195996        0.4692133600
 H         -6.0727872001        1.3853302399        0.9120308497
 H         -8.5045423400        0.9287472595        1.2734548700
 H         -9.5406622497       -1.0342547411        0.1974352507
 H         -8.1881082595       -2.5335950212       -1.2189667390
 H         -5.7583270196       -2.0469887008       -1.5521567393
 H         -4.0015941995       -1.3858580696        1.2244619703
 H         -2.2964508592       -2.3878926289        2.4218097605
 H          0.1076230508       -2.4292814983        2.9691505303
 H          1.6157385604       -0.7009513282        2.0650272197
 H          1.3571327098        1.9976063715        1.3083191589
 C          0.4156375096        2.2532063708       -0.5940511911
 C         -0.3575307207        3.4767752407       -0.2059462814
 C          0.9957150893        3.6136135808       -0.8343856716
 H          1.0621533491        3.9734230405       -1.8501816817
 H          1.8222477992        3.9153373212       -0.2076515117
 H         -1.2302370408        3.7370450504       -0.7863822214
 H         -0.4503714406        3.6934335410        0.8476037285
 H          0.0797193296        1.6921344004       -1.4606236109
