  62
        -98.94046106
 C         -0.6618974081       -1.4316067724        0.0173862000
 C         -1.3689627097       -0.5932335618        0.9082724439
 C         -2.3814994797        0.2948896510        0.3103881528
 C         -2.5352081346        0.3097316212       -1.0248398523
 C         -3.4780768220        1.1350612846       -1.8657794465
 C         -4.8937444005        1.3690531807       -1.3276425978
 C         -5.5041112377        0.1691094964       -0.5891285190
 H         -6.4833016401       -0.0533790119       -1.0172004931
 H         -4.8784434495       -0.7137931708       -0.7310877787
 C         -5.6919418593        0.4216899016        0.9082327600
 H         -6.0967265454        1.4263447887        1.0478915022
 H         -6.4310230540       -0.2846114119        1.2941013074
 C         -4.4313127308        0.2669938851        1.7577857150
 H         -4.1370849312       -0.7855491075        1.7951484737
 H         -4.6759105106        0.5659116097        2.7800354285
 C         -3.2123628962        1.0777827181        1.2861209965
 H         -3.5144420476        2.0398466604        0.8819649283
 H         -2.5681727010        1.2480030997        2.1528298608
 H         -4.8992125858        2.2349616598       -0.6679306526
 H         -5.5175341541        1.6242077455       -2.1861745881
 H         -3.0045230174        2.1003031372       -2.0622854818
 H         -3.5365399572        0.6082837323       -2.8215431334
 O         -1.7768507561       -0.4661394161       -1.8517802993
 C         -0.8443014848       -1.3640797029       -1.3626578856
 O         -0.2573548785       -2.0253916954       -2.2395840862
 H          1.5164510363       -0.0405962164        0.3737097294
 C          2.1491780119       -0.8082361796       -0.0488826492
 C          1.7146476132       -2.1277243611       -0.0308668042
 C          2.5437635552       -3.1075883132       -0.5601652729
 C          3.7667129244       -2.7643284807       -1.1103537978
 C          4.1906523025       -1.4488569063       -1.1349923430
 C          3.3718628145       -0.4613021059       -0.5977880081
 N          3.7492912075        0.8881335204       -0.6343119215
 S          3.2902504689        1.9319461980        0.5823302826
 O          4.1619999133        3.0771085285        0.4197000716
 O          3.3324322439        1.2952966953        1.8784980093
 C          1.6283167832        2.4329346294        0.1873670735
 C          1.2421029672        2.5472148227       -1.1329699140
 C         -0.0292425409        3.0185590914       -1.4181852979
 C         -0.8815721257        3.3787824900       -0.3861345219
 C         -0.4802400537        3.2551094479        0.9341697415
 C          0.7856611845        2.7751530776        1.2261731880
 H          1.1327915172        2.6501775503        2.2396675374
 H         -1.1458702323        3.5299528553        1.7362415874
 H         -1.8644362784        3.7625474886       -0.6092677626
 H         -0.3467588138        3.1057007213       -2.4452078729
 H          1.9284783455        2.2599562859       -1.9124647645
 H          4.6787863037        1.0754157294       -0.9795203047
 H          5.1419672106       -1.1830205605       -1.5700278487
 H          4.3996149172       -3.5336845819       -1.5260929623
 H          2.2304735149       -4.1385157489       -0.5515066758
 C          0.3592949428       -2.4100755469        0.5672466770
 H          0.4139822910       -2.2050153379        1.6472781013
 C         -0.1118708920       -3.8347920232        0.3623781781
 C          0.3120609559       -4.9159488636        1.3097819129
 C         -1.1004070728       -4.4162061738        1.3265650269
 H         -1.8806167107       -5.0565590509        0.9431508626
 H         -1.4135083444       -3.7921874138        2.1510806085
 H          0.9574782931       -4.6371068840        2.1291022930
 H          0.4998714583       -5.9034566299        0.9160260374
 H         -0.2280516587       -4.0864778999       -0.6860364942
 O         -1.1652916239       -0.5851079627        2.1527725059
