  62
        -98.94490336
 C         -1.9233157617       -0.1438373398        0.0683278363
 C         -2.9319089809       -1.0023513024        0.5679858087
 C         -4.2480535972       -0.3890740139        0.7753545060
 C         -4.4217368665        0.9200607855        0.5174517424
 C         -5.6979604667        1.6955654870        0.7021522836
 C         -6.6716981614        1.5850862467       -0.4791713874
 C         -7.3796355875        0.2363831316       -0.6147705473
 H         -8.1844824701        0.3690566689       -1.3405157520
 H         -7.8406340189       -0.0278744272        0.3374514945
 C         -6.4739103735       -0.9096987172       -1.0867101855
 H         -5.5627390512       -0.4968074053       -1.5258851439
 H         -6.9802491598       -1.4736908388       -1.8733379641
 C         -6.0884667861       -1.9048803635        0.0077813350
 H         -5.4185899078       -2.6503161928       -0.4282145778
 H         -6.9819753189       -2.4223303786        0.3639559902
 C         -5.3764115013       -1.2742067180        1.2116672309
 H         -4.9526340868       -2.0777616245        1.8189164249
 H         -6.0874854066       -0.7143361550        1.8185936121
 H         -6.1287442383        1.8064166861       -1.4010334032
 H         -7.4318529528        2.3586834110       -0.3479862027
 H         -5.4107709878        2.7432388529        0.8145473624
 H         -6.1953724636        1.3714041581        1.6167065959
 O         -3.4185462818        1.7179109091        0.0630950513
 C         -2.1530849635        1.2069772666       -0.1917543660
 O         -1.3423444746        2.0442657123       -0.6312621699
 O         -2.7386490445       -2.2187290926        0.8339868453
 C         -0.5427643414       -0.7172790220       -0.1982306616
 C          0.4881664026        0.0315567348        0.6080452553
 C          0.3182785063        0.1156937371        1.9887064969
 C          1.2161858107        0.8140615770        2.7706186959
 C          2.3123584463        1.4335853524        2.1948803458
 C          2.4958954080        1.3508650370        0.8207957456
 C          1.5897800503        0.6471506302        0.0367550203
 H          1.7501468490        0.6174097029       -1.0273398174
 N          3.5916396807        1.9830188853        0.2104554870
 S          4.5089303340        1.1752642090       -0.9290668273
 O          5.7207885388        1.9568947948       -1.0380158040
 O          3.7580446796        0.9898144158       -2.1436299099
 C          4.8672309217       -0.3974575607       -0.1686216907
 C          4.0693181935       -1.4888719731       -0.4449872838
 C          4.3187521615       -2.6827717541        0.2136526329
 C          5.3546381335       -2.7642237328        1.1311316382
 C          6.1506276901       -1.6594392470        1.3939125677
 C          5.9033725217       -0.4620679303        0.7429083002
 H          6.5038645771        0.4172985419        0.9107316590
 H          6.9587192661       -1.7275338475        2.1042970910
 H          5.5435332311       -3.6952492645        1.6419102269
 H          3.7018538694       -3.5432576071        0.0089343825
 H          3.2766949255       -1.3888803330       -1.1677195191
 H          4.1850706561        2.4923236928        0.8489250304
 H          3.0116046811        1.9878498301        2.8023423261
 H          1.0654466382        0.8767159022        3.8377672755
 H         -0.5398810142       -0.3662368394        2.4371086297
 H         -0.5844913946       -1.7526775043        0.1714288822
 C         -0.2610085797       -0.7438638620       -1.6851003219
 C          0.6456420851       -1.7883038232       -2.2615831334
 C         -0.8301929935       -1.8546134731       -2.5140016186
 H         -1.1988858632       -1.6233654525       -3.5021416249
 H         -1.4025692669       -2.6132968415       -2.0003396212
 H          1.2987186235       -1.5110535804       -3.0761432866
 H          1.0662898293       -2.5121073701       -1.5796526834
 H         -0.2466086089        0.2460585121       -2.1283457742
