  62
        -98.93943951
 C         -0.0461603285       -1.7442681403        0.6142070426
 C         -0.7467590501       -1.6616631423       -0.6105328939
 C         -2.0719059737       -1.0114548821       -0.5688163166
 C         -2.5418856620       -0.5598748052        0.6076678500
 C         -3.8474767452        0.1365465017        0.9023217352
 C         -5.1034325920       -0.4413157174        0.2327386090
 C         -5.6731967211        0.4576708313       -0.8655575959
 H         -5.5977050107        1.4971140766       -0.5394170987
 H         -6.7344709676        0.2306700276       -0.9887089311
 C         -5.0092907307        0.3099103782       -2.2335603341
 H         -5.4038074485        1.0972371825       -2.8802456912
 H         -5.2977151701       -0.6470590945       -2.6740431575
 C         -3.4813171046        0.3963338958       -2.2366407187
 H         -3.1340384664        1.1858594858       -1.5701916438
 H         -3.1622052548        0.6813852497       -3.2418301216
 C         -2.7863344589       -0.9284732606       -1.8890720876
 H         -2.0092793368       -1.1349772117       -2.6319985781
 H         -3.5006348413       -1.7547702683       -1.9600209288
 H         -5.8681207772       -0.5574159938        1.0023832356
 H         -4.8896424347       -1.4328891898       -0.1630410430
 H         -3.7442057331        1.1936137667        0.6425036969
 H         -3.9541891980        0.0895003103        1.9885526500
 O         -1.8271505931       -0.6618198089        1.7656957640
 C         -0.5651300984       -1.2251262471        1.7976996130
 O         -0.0190413627       -1.2075089334        2.9190811076
 O         -0.2920894376       -2.1134365329       -1.6945346382
 C          1.3412657642       -2.3567312772        0.6586003068
 C          2.2707334235       -1.5957215458       -0.2563740733
 C          3.2291975298       -2.2085434872       -1.0534133360
 C          4.0492117263       -1.4486308043       -1.8697050368
 C          3.9237615202       -0.0724538123       -1.9193829653
 C          2.9740841247        0.5511232056       -1.1182748615
 C          2.1759966896       -0.2102532480       -0.2813232917
 H          1.4438552809        0.2802329024        0.3438680193
 N          2.8185756477        1.9464985932       -1.1208335292
 S          1.2739164465        2.5914697066       -1.0561803106
 O          0.3124356404        1.7652812996       -1.7456536856
 O          1.4320675193        3.9390347156       -1.5654263680
 C          0.8866716849        2.6837685691        0.6775512200
 C          1.8102962651        3.2332433619        1.5440242897
 C          1.4891522366        3.3254662344        2.8887487660
 C          0.2573402146        2.8755705819        3.3397267365
 C         -0.6619784121        2.3330574497        2.4556568901
 C         -0.3451534800        2.2366575543        1.1106028438
 H         -1.0194244407        1.8018124461        0.3877821478
 H         -1.6138674223        1.9686427344        2.8076467231
 H          0.0105855169        2.9418077872        4.3875240762
 H          2.2001110410        3.7443521440        3.5826004998
 H          2.7566150365        3.5713373642        1.1560655886
 H          3.3968921128        2.4370706083       -1.7879770505
 H          4.5497303299        0.5164416810       -2.5725439807
 H          4.7874962096       -1.9368840954       -2.4876849912
 H          3.3289926367       -3.2815633679       -1.0422225003
 H          1.6975867142       -2.2234887878        1.6912328641
 C          1.2758940607       -3.8391538470        0.3532147393
 C          2.2555519008       -4.7861766442        0.9769880292
 C          0.8280101058       -4.7778545491        1.4317785479
 H          0.1928901402       -5.6082366754        1.1620978958
 H          0.5989172456       -4.3483832242        2.3963936829
 H          2.6005210826       -5.6279802117        0.3955998690
 H          2.9991253233       -4.3720574466        1.6409744996
 H          0.9379705644       -4.0394658387       -0.6570962663
