  62
        -98.93456272
 C         -1.5574620017       -0.5685171008       -0.6581581949
 C         -2.9029637206       -0.9027522252       -0.9499655378
 C         -3.9320585268       -0.4968959372        0.0268795429
 C         -3.5391827554        0.1108328299        1.1612304171
 C         -4.3933025743        0.6373415659        2.2839326370
 C         -5.0924419393        1.9591977123        1.9281677174
 C         -5.7213922617        1.9992168854        0.5379709947
 H         -4.9501931087        1.8059693246       -0.2097526462
 H         -6.0891349374        3.0148061183        0.3694673111
 C         -6.8884643747        1.0383524912        0.3238521205
 H         -7.2978505312        1.2421046274       -0.6688804029
 H         -7.6699508502        1.2552626650        1.0554638715
 C         -6.5513036109       -0.4525003088        0.3998926166
 H         -7.4025920432       -0.9998777354       -0.0153281317
 H         -6.4480834985       -0.7806321306        1.4307852430
 C         -5.3281810401       -0.8708181290       -0.4099436823
 H         -5.4345402104       -0.5021978707       -1.4366876825
 H         -5.3249779146       -1.9640128061       -0.4974229833
 H         -4.3494811526        2.7588023248        1.9811780414
 H         -5.8558784494        2.1585580690        2.6820739551
 H         -3.7241217457        0.8137387999        3.1292323994
 H         -5.1164158466       -0.1140840982        2.5871425267
 O         -2.2276305464        0.3694747202        1.4255859760
 C         -1.2071866290        0.0492849498        0.5431256038
 O         -0.0754911814        0.3693629030        0.9482986597
 O         -3.2441917120       -1.5176241505       -1.9963273970
 C         -0.5002791041       -0.9862997214       -1.6651441485
 C          0.5781876062       -1.7901806742       -0.9855038481
 C          0.3016550558       -3.1096128766       -0.6368417555
 C          1.2581734361       -3.8965921373       -0.0260855806
 C          2.5088214669       -3.3765081462        0.2559292315
 C          2.7916122393       -2.0567382324       -0.0715900046
 C          1.8312668065       -1.2710007466       -0.6954051383
 H          2.0600636471       -0.2462774262       -0.9376593469
 N          4.0638667937       -1.5088097854        0.1936963700
 S          4.1517539069       -0.2291645033        1.2862831920
 O          5.5327225680       -0.2447066295        1.7296165633
 O          3.1609423158       -0.3552136577        2.3288808156
 C          3.8979826945        1.2339232011        0.3093578158
 C          4.8900228990        1.5829843001       -0.5869133972
 C          4.7423376026        2.7420111102       -1.3304796202
 C          3.6158563222        3.5326394539       -1.1564899474
 C          2.6304431799        3.1658058616       -0.2530436331
 C          2.7654148894        2.0013067546        0.4883984198
 H          2.0048385667        1.6642619338        1.1750721740
 H          1.7513004689        3.7770545555       -0.1230949148
 H          3.5025039688        4.4398483303       -1.7293265673
 H          5.5039498640        3.0283941831       -2.0377591254
 H          5.7560725022        0.9483550241       -0.6744358717
 H          4.7453341600       -2.2054618051        0.4650720832
 H          3.2620624094       -3.9856707837        0.7337927080
 H          1.0308264030       -4.9196139724        0.2337939317
 H         -0.6786900265       -3.5115529265       -0.8542470252
 H         -1.0389103585       -1.6654307306       -2.3468226426
 C          0.0470814283        0.1386444017       -2.5295429365
 C         -0.8707257016        1.2035253295       -3.0506287233
 C          0.1933015147        1.5510978593       -2.0553882482
 H          1.0509049172        2.1125201689       -2.3958042474
 H         -0.0993275442        1.7761674254       -1.0426517391
 H         -0.7529112274        1.5341346361       -4.0713483980
 H         -1.8969260603        1.1798089818       -2.7134075131
 H          0.8069815333       -0.2217663058       -3.2163592063
