  62
        -98.94169184
 C          1.0670681748        1.5558960983        0.5056181215
 C          1.9705246142        1.2054986751       -0.5230917646
 C          3.0341822785        0.2414702640       -0.1753908575
 C          3.0911335510       -0.2386509822        1.0804595205
 C          4.0553425241       -1.2435662315        1.6525750185
 C          3.7203715443       -2.6854196168        1.2384833085
 C          3.3513405157       -2.8638865762       -0.2319543024
 H          3.0345794782       -3.9017493835       -0.3692403717
 H          2.4828017103       -2.2427706711       -0.4627347292
 C          4.4763024693       -2.5830575132       -1.2257821113
 H          5.3097676293       -3.2585096851       -1.0182985336
 H          4.0935783963       -2.8235820568       -2.2210678994
 C          5.0111735505       -1.1497114080       -1.2553765194
 H          5.6686872266       -0.9599423026       -0.4112463412
 H          5.6252311254       -1.0524119892       -2.1556138057
 C          3.9380359861       -0.0694018611       -1.3433610682
 H          3.2702935230       -0.2969525576       -2.1826238496
 H          4.4194858485        0.8803743025       -1.6067905922
 H          4.5719356446       -3.3229352455        1.4837315427
 H          2.8645925833       -3.0187601037        1.8310652393
 H          5.0727001260       -0.9858877621        1.3733713765
 H          3.9787958690       -1.1684319250        2.7397693583
 O          2.1963241385        0.1292026805        2.0418392427
 C          1.1592265293        1.0038915603        1.7808807762
 O          0.3991873437        1.2099588150        2.7502174414
 O          1.8955362574        1.6677242568       -1.6925244704
 C         -0.0897943409        2.4923224689        0.2175346901
 C         -0.9866119320        1.9236060941       -0.8578968517
 C         -1.7206730937        2.7218799262       -1.7275079149
 C         -2.5495999542        2.1452577374       -2.6742183596
 C         -2.6777831801        0.7710239473       -2.7685645158
 C         -1.9483835411       -0.0357611900       -1.9027433272
 C         -1.1189971225        0.5465780513       -0.9583685078
 H         -0.5380769841       -0.0908962573       -0.3113195540
 N         -2.0289324948       -1.4332581754       -1.9690943071
 S         -1.8023955596       -2.3689831415       -0.6061155632
 O         -0.4136455170       -2.3819494191       -0.2215968189
 O         -2.3701103364       -3.6516292591       -0.9644117869
 C         -2.8065994803       -1.6025159602        0.6530001685
 C         -4.1774761171       -1.6254465788        0.4794872799
 C         -4.9843208351       -1.0051219858        1.4184073307
 C         -4.4100973050       -0.3673932734        2.5083707584
 C         -3.0341708953       -0.3577010726        2.6719575131
 C         -2.2230301101       -0.9830468955        1.7380307476
 H         -1.1493159689       -0.9844699221        1.8452261142
 H         -2.5731409017        0.1402929436        3.5103290070
 H         -5.0367537902        0.1229737683        3.2364586630
 H         -6.0554600615       -1.0160204289        1.2974407861
 H         -4.5870337712       -2.1389349646       -0.3750982041
 H         -2.7400758324       -1.8016495945       -2.5821226592
 H         -3.3222690850        0.3249658711       -3.5101290774
 H         -3.1084420985        2.7765277759       -3.3481581833
 H         -1.6367656527        3.7947643220       -1.6684677604
 H         -0.6758718418        2.5439040184        1.1481989509
 C          0.4201822644        3.8812419956       -0.1132271169
 C         -0.3520174416        5.0958618841        0.3039396994
 C          0.9280241323        4.7466503094        0.9996771654
 H          1.7999648077        5.3579265299        0.8219171099
 H          0.8745303253        4.3443462933        2.0012005062
 H         -0.3574365156        5.9532190184       -0.3522808311
 H         -1.2749607649        4.9435572580        0.8428840931
 H          0.9560111964        3.9108054229       -1.0548806849
