  62
        -98.94489828
 C          2.0100217470        1.4374873435        0.1099897573
 C          1.9988714692        0.5787160115       -1.0156473421
 C          2.8725226371       -0.6020847444       -0.9331066026
 C          3.6199966203       -0.8031451034        0.1665362112
 C          4.5097541228       -1.9889933474        0.3986390249
 C          3.7579438542       -3.1203620135        1.1136781721
 C          2.4072730620       -3.4614239938        0.4840558102
 H          1.9896949399       -4.2960254548        1.0507980251
 H          1.7312474152       -2.6126454165        0.6093037154
 C          2.4758177702       -3.8394869123       -1.0022027189
 H          3.4986220258       -4.1066577877       -1.2703905994
 H          1.8594505494       -4.7255635298       -1.1692611203
 C          1.9711447678       -2.7556233457       -1.9569153725
 H          0.9875375508       -2.4063398984       -1.6327497691
 H          1.8518650447       -3.2030246751       -2.9474501441
 C          2.8838469235       -1.5329919108       -2.1132621138
 H          3.9016179438       -1.8576781626       -2.3387188128
 H          2.5154125684       -0.9483682998       -2.9612684109
 H          4.3949254483       -4.0067679162        1.1185195166
 H          3.5857914798       -2.8197509894        2.1495983518
 H          4.8939790295       -2.3407310582       -0.5569540911
 H          5.3481644635       -1.6717297610        1.0210935645
 O          3.6138057247        0.0462664887        1.2242603238
 C          2.8145969279        1.1744390120        1.2248604629
 O          2.9096620433        1.8644341021        2.2592339003
 H         -0.6492024308        1.4780921311       -1.3876675451
 C         -1.0715890332        1.7591910647       -0.4347188766
 C         -0.2682152025        2.3926548123        0.5028968114
 C         -0.8178452954        2.7172521959        1.7378279026
 C         -2.1422349262        2.4287081545        2.0176591564
 C         -2.9433633816        1.8077966068        1.0760865682
 C         -2.3976750683        1.4612727021       -0.1535535285
 N         -3.1916711388        0.8224208670       -1.1238479743
 S         -4.1017675497       -0.5097771083       -0.6870498262
 O         -4.4724201957       -1.1401504505       -1.9329895740
 O         -5.1884277638       -0.0859562186        0.1600074324
 C         -2.9956173141       -1.5658375444        0.2296433751
 C         -2.1710406554       -2.4207215955       -0.4747334068
 C         -1.2837485184       -3.2236565524        0.2228725236
 C         -1.2234431021       -3.1446537300        1.6059222688
 C         -2.0542893765       -2.2781123954        2.2984418100
 C         -2.9532501506       -1.4818931455        1.6067264698
 H         -3.6261938372       -0.8094993437        2.1119771142
 H         -2.0057498087       -2.2203835238        3.3739838167
 H         -0.5263291622       -3.7650366225        2.1467963969
 H         -0.6409598401       -3.9046588966       -0.3112999561
 H         -2.2501330393       -2.4555337767       -1.5497139422
 H         -2.6933729124        0.6394455403       -1.9831749506
 H         -3.9796282984        1.5864707628        1.2740780290
 H         -2.5573939957        2.6942978050        2.9780550625
 H         -0.1952054951        3.1913928999        2.4827902274
 C          1.1769172150        2.7083476308        0.1976578157
 H          1.5830560348        3.2651204743        1.0523617448
 C          1.3033717788        3.5780756382       -1.0386513614
 C          0.9627427055        5.0332446251       -0.9391962103
 C          2.3904055059        4.6063942422       -1.1006233528
 H          2.8800217766        4.7824586086       -2.0467443629
 H          3.0481976376        4.6907436130       -0.2475327868
 H          0.4690447533        5.5054417552       -1.7746701437
 H          0.6527351333        5.4094519796        0.0240822269
 H          1.0564028294        3.0645929377       -1.9581963133
 O          1.3067759495        0.7649143194       -2.0530561873
