  62
        -98.94878584
 C          1.8076698809        1.3433498675       -0.2485667374
 C          2.8892647462        0.6693180373        0.3629922888
 C          3.2736933740       -0.6073257213       -0.2463235946
 C          2.6110171427       -1.0571354362       -1.3278992920
 C          2.8725740535       -2.3508416266       -2.0492731582
 C          2.1596604814       -3.5505857108       -1.4095685245
 C          2.7808291363       -4.0499886717       -0.1043832259
 H          2.3385518793       -5.0254699641        0.1079047454
 H          3.8529595899       -4.1982604584       -0.2420732867
 C          2.5333657060       -3.1291546582        1.0987861611
 H          2.2257894700       -3.7304642696        1.9585617139
 H          1.6999357835       -2.4587730194        0.8712654751
 C          3.7488847927       -2.3076435905        1.5312893323
 H          3.4482526414       -1.6636163598        2.3622437490
 H          4.5317882184       -2.9786100985        1.8928976333
 C          4.3391770578       -1.4158539196        0.4309630490
 H          5.0414327434       -0.7192223788        0.8961202888
 H          4.8773006165       -2.0230772234       -0.2962849395
 H          1.1162911464       -3.2783552875       -1.2280043561
 H          2.1742804092       -4.3686489652       -2.1338140433
 H          3.9451247200       -2.5414878046       -2.0977943194
 H          2.4923681092       -2.2250333769       -3.0652362074
 O          1.6026701438       -0.3607177962       -1.9104846188
 C          1.1324222740        0.8140157060       -1.3494069751
 O          0.1385281694        1.2973349048       -1.9255932112
 O          3.4929277909        1.1069671387        1.3818707876
 C          1.2628322355        2.6080888836        0.3947280441
 C         -0.1700931779        2.3468830141        0.7877613670
 C         -1.2284534945        3.1957250399        0.4926190935
 C         -2.5313236117        2.8231249428        0.7797673049
 C         -2.8078099556        1.5883966091        1.3386864507
 C         -1.7525849513        0.7467938466        1.6624540151
 C         -0.4500654449        1.1416908358        1.4213253232
 H          0.3625807923        0.4689235932        1.6682144016
 N         -2.0377539325       -0.5702515569        2.1342946463
 S         -1.9185897419       -1.6620505352        0.8447237532
 O         -2.2556977863       -2.9579529657        1.3966039244
 O         -0.6243705677       -1.5873285627        0.2016028718
 C         -3.2093605352       -1.0919868600       -0.2326326248
 C         -4.4995609036       -1.5187400796        0.0167891837
 C         -5.5291785980       -1.0350890635       -0.7734361611
 C         -5.2512973849       -0.1320865948       -1.7891615832
 C         -3.9506531597        0.2859792131       -2.0244129626
 C         -2.9132087335       -0.1949601443       -1.2396929190
 H         -1.8920854310        0.1195238612       -1.3983314626
 H         -3.7295364627        0.9903529799       -2.8101990786
 H         -6.0527390710        0.2494374095       -2.4020362989
 H         -6.5416845571       -1.3587862559       -0.5937099753
 H         -4.6620995902       -2.2214931020        0.8173718419
 H         -1.3908530694       -0.8726876534        2.8518502969
 H         -3.8197073704        1.2652493157        1.5207690066
 H         -3.3429665564        3.4906075073        0.5354774348
 H         -1.0338865410        4.1422890837        0.0153239522
 H          1.8619807201        2.7595864027        1.3049624332
 C          1.4361519411        3.8047023769       -0.5149376702
 C          1.5630669675        5.1811560009        0.0649826420
 C          2.7577562985        4.5101080944       -0.5410675636
 H          3.1302128801        4.8708830005       -1.4879217352
 H          3.5295400502        4.1402005758        0.1181325613
 H          1.1176567687        6.0079345082       -0.4671454160
 H          1.5275342514        5.2760710136        1.1396835935
 H          0.9117391237        3.6885188731       -1.4566518239
