  62
        -98.94532967
 C         -1.5630759009       -0.9954412897        0.3111834506
 C         -2.8838111110       -1.1487538093        0.8015528403
 C         -3.9611420208       -0.7929534393       -0.1275047800
 C         -3.6580772504       -0.3517196197       -1.3617929000
 C         -4.6445031101        0.0408583503       -2.4280579503
 C         -5.1547321398        1.4829980904       -2.3029400408
 C         -6.1318202500        1.7300751610       -1.1527251811
 H         -6.5735722197        2.7153036010       -1.3148126914
 H         -6.9397034601        0.9992367311       -1.2005581510
 C         -5.4901831603        1.7010697612        0.2416233591
 H         -5.8458646202        2.5544126914        0.8235687688
 H         -4.4069119502        1.8095027609        0.1468053593
 C         -5.7936778407        0.4414685615        1.0530833193
 H         -5.2616413009        0.5112968116        2.0052218094
 H         -6.8634335608        0.3935259718        1.2681024792
 C         -5.3732074009       -0.8664575188        0.3701494598
 H         -5.4241864712       -1.6702654286        1.1085953600
 H         -6.0536521508       -1.0991685989       -0.4485126103
 H         -5.6590151296        1.7327697203       -3.2393843010
 H         -4.2949525097        2.1497716703       -2.2012343008
 H         -4.1251989300       -0.0582237601       -3.3836778402
 H         -5.4897621303       -0.6478447395       -2.4182354303
 O         -2.3776691503       -0.2269585401       -1.7996669698
 C         -1.2996086005       -0.5229804501       -0.9749904095
 O         -0.1901538004       -0.3420150805       -1.5106257194
 H          2.0834905992       -0.3368097304        0.6000233611
 C          1.5190818092        0.3386297499        1.2168121708
 C          0.2492721191       -0.0113615497        1.6444992706
 C         -0.4539302709        0.8819117606        2.4501113503
 C          0.1044314393        2.0911018206        2.8151400901
 C          1.3682418295        2.4430649402        2.3707173602
 C          2.0746454594        1.5638014998        1.5612476806
 N          3.3671108896        1.8736054594        1.0990490307
 S          3.6499136799        1.7867473989       -0.5590649392
 O          4.8518997001        2.5734851086       -0.7515481192
 O          2.4929283702        2.2142182290       -1.3098348495
 C          4.0348525396        0.0770190187       -0.8660413886
 C          5.1918210494       -0.4309393014       -0.3078476683
 C          5.5119778391       -1.7610147915       -0.5260172679
 C          4.6755497191       -2.5539156715       -1.2977742978
 C          3.5210358093       -2.0256414214       -1.8549402082
 C          3.1917074296       -0.6957316013       -1.6401557586
 H          2.2833178397       -0.2608787212       -2.0290705689
 H          2.8659980693       -2.6418795714       -2.4507437782
 H          4.9221263689       -3.5905916916       -1.4661755875
 H          6.4080462789       -2.1761917016       -0.0936945976
 H          5.8154310494        0.2226722086        0.2789483717
 H          3.7331641597        2.7432331894        1.4619713606
 H          1.8023941897        3.3925049202        2.6469123800
 H         -0.4493420006        2.7713427609        3.4449259098
 H         -1.4461071310        0.6119011109        2.7849101101
 C         -0.4090519511       -1.3107313197        1.2490248109
 H         -0.8774675714       -1.7380448794        2.1471902909
 C          0.5449067187       -2.3268546701        0.6596656013
 C          1.5355659584       -3.0160891001        1.5484605917
 C          0.3738692084       -3.7783667299        0.9875358417
 H          0.5585678483       -4.5056323402        0.2115314919
 H         -0.4311020218       -4.0485232596        1.6553011116
 H          2.5217954384       -3.2166696804        1.1579904319
 H          1.5186497683       -2.7671821998        2.5986125316
 H          0.8572343190       -2.0803791704       -0.3475298587
 O         -3.1489120413       -1.5660744389        1.9605425504
