  62
        -98.94292676
 C         -2.0508694770       -0.9239209872        0.4792202040
 C         -2.7425250648        0.1329009143        1.1285047991
 C         -4.1702920555        0.2642344850        0.8228867061
 C         -4.7544289986       -0.6135693750       -0.0122691537
 C         -6.2060217793       -0.6324835273       -0.4072038675
 C         -6.5513115157        0.3218445493       -1.5586571282
 C         -6.5527929767        1.8071457688       -1.1947918643
 H         -7.0214856172        2.3399224108       -2.0245727115
 H         -7.1762128682        1.9639972865       -0.3139910021
 C         -5.1582126247        2.4016711822       -0.9529314649
 H         -5.0727081130        3.3559345364       -1.4776691242
 H         -4.3995995610        1.7373002284       -1.3734417211
 C         -4.8255167743        2.6623948172        0.5163447632
 H         -3.8031179236        3.0453335527        0.5734382008
 H         -5.4944607588        3.4291148586        0.9137146444
 C         -4.9167525767        1.4215559043        1.4141186850
 H         -4.4550005930        1.6589457110        2.3757879523
 H         -5.9599715550        1.1550967267        1.5831854280
 H         -5.8501996837        0.1487130935       -2.3782587735
 H         -7.5497802844        0.0560905634       -1.9132709935
 H         -6.8245507165       -0.3980174535        0.4596085592
 H         -6.4275661387       -1.6527859219       -0.7274063520
 O         -4.0667174888       -1.6277559146       -0.5952075466
 C         -2.7037275968       -1.7984757083       -0.3903388036
 O         -2.2264206089       -2.7534000673       -1.0334897214
 O         -2.1898474526        0.9262902466        1.9376573867
 C         -0.5702489931       -1.0535081528        0.7907104741
 C          0.2923427600       -0.4106049725       -0.2694437892
 C          0.2314614122       -0.8095556707       -1.6012978775
 C          1.0386870798       -0.2091515567       -2.5496852427
 C          1.9379331168        0.7792499548       -2.1876323572
 C          2.0127794511        1.1785936764       -0.8595223555
 C          1.1840752728        0.5905455423        0.0870429129
 H          1.2478859813        0.9220625407        1.1124708044
 N          2.9292381710        2.1674141752       -0.4488143179
 S          4.0680714845        1.7365175206        0.7022305674
 O          3.4139995302        1.4183996289        1.9444761001
 O          5.0098630492        2.8327134430        0.7290293386
 C          4.8465622732        0.2840317329        0.0180087096
 C          6.0084315128        0.4343569271       -0.7139241001
 C          6.5739922146       -0.6800823657       -1.3120000838
 C          5.9631411984       -1.9179842239       -1.1796835407
 C          4.7950952264       -2.0515250301       -0.4448272137
 C          4.2280822617       -0.9422432752        0.1626289481
 H          3.3217940391       -1.0139929214        0.7413582403
 H          4.3175634111       -3.0128470112       -0.3436588324
 H          6.3990952548       -2.7846792467       -1.6509671544
 H          7.4840179722       -0.5797621122       -1.8813017942
 H          6.4491606019        1.4154428358       -0.7883289664
 H          3.3906688949        2.6354514076       -1.2167058705
 H          2.5733528997        1.2417377168       -2.9279163852
 H          0.9753182047       -0.5222300505       -3.5807367593
 H         -0.4598205340       -1.5883669101       -1.8841117016
 H         -0.4256618472       -0.4851501679        1.7201742702
 C         -0.1190794172       -2.4811054427        1.0329785919
 C          1.0771046069       -2.7241649403        1.9019135734
 C         -0.2931305732       -3.0822469971        2.3934762107
 H         -0.5630710226       -4.1250571595        2.4644185588
 H         -0.7372809859       -2.4636933825        3.1600963313
 H          1.7523380111       -3.5242042388        1.6400182206
 H          1.5603398717       -1.8647773155        2.3447149964
 H         -0.2672768653       -3.1302752408        0.1800146672
