  62
        -98.94338167
 C         -1.4004512137       -0.9351618375        0.0010224254
 C         -1.8602601792        0.1998001173        0.7112940355
 C         -2.8633947274        1.0245397698        0.0242153645
 C         -3.2521681460        0.6866951104       -1.2190416628
 C         -4.3007446477        1.4091045653       -2.0134634816
 C         -5.6930393263        0.8088613157       -1.7731101195
 C         -6.0411117194        0.6263245602       -0.2958047735
 H         -7.0559746462        0.2256195954       -0.2485649405
 H         -5.3780444340       -0.1267965827        0.1359537624
 C         -5.9595434792        1.9118199501        0.5392967266
 H         -5.9777618421        2.7822990371       -0.1176196071
 H         -6.8430186675        1.9704909290        1.1785266239
 C         -4.7388825230        1.9945680180        1.4574948125
 H         -4.6663874364        1.0805443584        2.0520940538
 H         -4.8916928672        2.8254167077        2.1513730202
 C         -3.3927716733        2.2240112319        0.7589325989
 H         -3.4672873397        3.0846736688        0.0908699998
 H         -2.6527400904        2.4509117393        1.5319284238
 H         -6.4336736581        1.4561847962       -2.2463920142
 H         -5.7369211696       -0.1687528054       -2.2588093443
 H         -4.2961940235        2.4624983843       -1.7394384061
 H         -4.0535274218        1.3178795566       -3.0726403421
 O         -2.7571025166       -0.3877187405       -1.8856301127
 C         -1.8222303597       -1.2284288605       -1.2955599136
 O         -1.4508665209       -2.1718744344       -2.0183868436
 H          0.7425898975        0.2375004855       -0.6072253481
 C          1.3630044378       -0.6474704369       -0.6841418490
 C          0.9259602384       -1.8335494279       -0.1087558060
 C          1.7457524825       -2.9511741502       -0.2088762318
 C          2.9606099356       -2.8800872930       -0.8696792050
 C          3.3899497693       -1.6953787583       -1.4404440059
 C          2.5769950486       -0.5751449308       -1.3483189530
 N          3.0341472553        0.6565122510       -1.8840944475
 S          4.1508047230        1.4160199319       -0.8850328072
 O          4.2932479778        2.7616004078       -1.3929858474
 O          5.3465259006        0.6147920748       -0.8457421558
 C          3.3585854702        1.4278644989        0.7123249465
 C          3.5019741169        0.3313113834        1.5384715669
 C          2.7760473505        0.2842890492        2.7176672110
 C          1.9212908597        1.3247441861        3.0465409318
 C          1.7935761286        2.4217835658        2.2090189299
 C          2.5116969432        2.4723277766        1.0255421036
 H          2.4353993214        3.3044826273        0.3432039269
 H          1.1245538430        3.2265406003        2.4681793271
 H          1.3419938161        1.2787154678        3.9549156716
 H          2.8711290956       -0.5687904695        3.3700478966
 H          4.1725219384       -0.4600849621        1.2453554878
 H          2.2791509538        1.3043436803       -2.0647032218
 H          4.3417856423       -1.6143581019       -1.9391922521
 H          3.5832090652       -3.7590214550       -0.9381099578
 H          1.4332453326       -3.8821874448        0.2350360237
 C         -0.3738390221       -1.8364083899        0.6577786909
 H         -0.1766491155       -1.3798811488        1.6404468237
 C         -0.9413857550       -3.2249944156        0.8707770607
 C         -0.5405568485       -4.0364965172        2.0655045178
 C         -1.9135876444       -3.4419759444        1.9905466124
 H         -2.7552036196       -4.0974683401        1.8239248428
 H         -2.1394218587       -2.5942029042        2.6209453104
 H         -0.4407184970       -5.1055432070        1.9522710693
 H          0.1613193836       -3.5970588972        2.7577433423
 H         -1.1303108209       -3.7432710312       -0.0626035291
 O         -1.4453306491        0.5106806602        1.8590464781
