  62
        -98.94643058
 C          1.5422679790        1.1036074418        0.0255982900
 C          2.5839912656        0.8035143214        0.9404313576
 C          3.3022395285       -0.4569996204        0.7141581518
 C          2.9176364247       -1.2595028581       -0.2947479771
 C          3.5818568137       -2.5540658524       -0.6619703513
 C          4.6875522148       -2.3345427415       -1.7041364523
 C          5.6581115522       -1.2084719077       -1.3479831879
 H          6.4110055986       -1.1663119672       -2.1380907515
 H          5.1223850980       -0.2565548547       -1.3646119966
 C          6.3524376361       -1.3743702300        0.0110195465
 H          6.2777904214       -2.4110250965        0.3414685845
 H          7.4142022751       -1.1486800077       -0.1087080290
 C          5.8224770282       -0.4522732692        1.1108018008
 H          5.8097119548        0.5790587433        0.7490970192
 H          6.5178927315       -0.4940573848        1.9533058784
 C          4.4278547328       -0.7920488816        1.6515848795
 H          4.3915773952       -1.8450068118        1.9378768277
 H          4.2621438812       -0.1866027678        2.5473971194
 H          5.2396093728       -3.2685202798       -1.8237785389
 H          4.2193464252       -2.0922599268       -2.6610720103
 H          3.9987592146       -3.0095168236        0.2340475007
 H          2.8296083162       -3.2235281425       -1.0826209883
 O          1.8956321992       -0.9540282633       -1.1324630358
 C          1.1917788047        0.2364026362       -1.0089558124
 O          0.3033881589        0.3842565251       -1.8696360266
 O          2.8967773978        1.5562963224        1.9002576662
 C          0.7534490035        2.3857689808        0.2429496384
 C         -0.6293164015        1.9827009671        0.6892818438
 C         -0.8535358188        1.6679084415        2.0269058934
 C         -2.0812026631        1.1889633192        2.4447603060
 C         -3.1026719728        0.9850367499        1.5328450029
 C         -2.8815295597        1.2824637164        0.1950206862
 C         -1.6633211921        1.8050234437       -0.2164537238
 H         -1.5086541374        2.0251330212       -1.2603971788
 N         -3.8886204555        1.0103058776       -0.7499226592
 S         -4.5946453737       -0.5053956748       -0.6513461841
 O         -4.9593533904       -0.8522581077       -2.0076393305
 O         -5.6875472742       -0.4584096271        0.2898799190
 C         -3.3349564319       -1.6133624478       -0.0344815530
 C         -3.6190972233       -2.4063387124        1.0594529344
 C         -2.6441696956       -3.2649973303        1.5404737285
 C         -1.4030435356       -3.3136672927        0.9247270419
 C         -1.1348058408       -2.5136359699       -0.1747160469
 C         -2.1068439259       -1.6558715441       -0.6638523029
 H         -1.8959962368       -1.0198603517       -1.5093248543
 H         -0.1687736075       -2.5361574782       -0.6545914047
 H         -0.6392335814       -3.9753880692        1.3020851901
 H         -2.8520711120       -3.8884770980        2.3950861468
 H         -4.5936454754       -2.3291282344        1.5137465241
 H         -3.6026151421        1.2036901891       -1.6993538648
 H         -4.0604292221        0.5918194278        1.8337095634
 H         -2.2422913704        0.9576568367        3.4864783385
 H         -0.0443785129        1.7886192261        2.7332693331
 H          1.2512653245        2.8973153636        1.0770465440
 C          0.7732894683        3.2936491391       -0.9681392027
 C          0.3234084556        4.7157649316       -0.8217684112
 C          1.7742703224        4.4064832601       -1.0327032828
 H          2.2194044451        4.6437796592       -1.9874532182
 H          2.4484981892        4.5222700306       -0.1968038741
 H         -0.2294869163        5.1692820821       -1.6301772063
 H          0.0110106560        5.0391193928        0.1596704371
 H          0.5462578176        2.7836012971       -1.8962773433
