  62
        -98.94016663
 C          1.6650604698        1.4410826611        0.3823736111
 C          1.5757408704        0.3567476415       -0.5203862394
 C          2.5070221108       -0.7661933083       -0.2946371196
 C          3.3633870505       -0.7220831485        0.7428438106
 C          4.3797679407       -1.7272208183        1.2433278605
 C          4.8100309913       -2.9060049078        0.3741784501
 C          5.6078392515       -2.5233787170       -0.8723573496
 H          5.7622731320       -3.4244647366       -1.4698721799
 H          6.5900220313       -2.1613869768       -0.5580913991
 C          4.9819217614       -1.4442706768       -1.7525114392
 H          5.6600827116       -1.2621232762       -2.5907074090
 H          4.9082829409       -0.5103811471       -1.1914350588
 C          3.6107281517       -1.7859356570       -2.3318583798
 H          3.6656601322       -2.7326136868       -2.8730048602
 H          3.3539406516       -1.0045001468       -3.0523098595
 C          2.4627349314       -1.8716639779       -1.3112730301
 H          2.4432401816       -2.8455179781       -0.8276981706
 H          1.5212774315       -1.7547435380       -1.8564456603
 H          3.9499131616       -3.5122610180        0.1057318896
 H          5.4544067714       -3.5321391378        0.9972752500
 H          3.9709324406       -2.1196945789        2.1809193502
 H          5.2646655104       -1.1434312381        1.5159494810
 O          3.3931534099        0.3373407812        1.6033195111
 C          2.5657176395        1.4320113109        1.4493273914
 O          2.7236324790        2.3199634906        2.3097520318
 O          0.7605233907        0.3065812516       -1.4790628596
 C          0.7566568594        2.6559261508        0.2643216114
 C         -0.6490582705        2.2013994102        0.5686703008
 C         -1.0533528108        2.0645755295        1.8939009807
 C         -2.3002493507        1.5535553689        2.2032134401
 C         -3.1583743503        1.1381368490        1.1990255597
 C         -2.7548542900        1.2564512898       -0.1238773102
 C         -1.5213276301        1.8125769503       -0.4347544196
 H         -1.2238934698        1.8923812809       -1.4677141395
 N         -3.5847634695        0.7705551299       -1.1496980606
 S         -4.2611952691       -0.7419913804       -0.9153808215
 O         -4.3772428085       -1.3212924299       -2.2362211718
 O         -5.5025640893       -0.5995107212       -0.1930387617
 C         -3.1136937890       -1.6830415804        0.0831099884
 C         -1.7662546089       -1.6802113498       -0.2193999812
 C         -0.9038138689       -2.4206794799        0.5735141587
 C         -1.3960032789       -3.1591461705        1.6379104482
 C         -2.7527594890       -3.1606871911        1.9214558379
 C         -3.6190707591       -2.4127796511        1.1410486180
 H         -4.6787043791       -2.3721544415        1.3351564977
 H         -3.1359826390       -3.7355836416        2.7490612975
 H         -0.7167101789       -3.7328091106        2.2485951182
 H          0.1524220312       -2.4024350294        0.3559991790
 H         -1.3817979489       -1.0973467993       -1.0419144908
 H         -3.1638510993        0.8328633905       -2.0658819405
 H         -4.1260206902        0.7166951186        1.4201421092
 H         -2.6032918010        1.4627250183        3.2350689600
 H         -0.3680593011        2.3512521594        2.6794887010
 H          1.0745326190        3.3476657906        1.0550549418
 C          0.9059706295        3.3448691315       -1.0759493582
 C          0.3490186191        4.7240376514       -1.2567194578
 C          1.8318658692        4.5158655319       -1.1980584075
 H          2.4051927894        4.6264086325       -2.1064235372
 H          2.3587489888        4.8320310117       -0.3095312572
 H         -0.0972294607        4.9818794616       -2.2050796778
 H         -0.1328495213        5.1811425008       -0.4056906477
 H          0.8611750300        2.6662924618       -1.9185711785
