  62
        -98.94169400
 C         -1.9901714517       -1.4997578804        0.0302092297
 C         -2.1959901431       -0.5188190566       -0.9715330250
 C         -3.5307922756        0.0985186481       -0.9956802896
 C         -4.4623914386       -0.2660203607       -0.0975831815
 C         -5.8686318785        0.2617802054       -0.0100514888
 C         -5.9940551386        1.5810281520        0.7641633924
 C         -5.4586213819        2.8151009090        0.0369676107
 H         -5.8987828863        2.8678400051       -0.9593755467
 H         -5.8042364616        3.6893632258        0.5922147549
 C         -3.9283431646        2.8730912191       -0.0705040584
 H         -3.5821487660        3.8746225778        0.1954408749
 H         -3.4855401160        2.1813685401        0.6502924027
 C         -3.3793613064        2.5583453344       -1.4620386946
 H         -3.7144074597        3.3211168123       -2.1685046913
 H         -2.2881007104        2.5999154261       -1.4168314444
 C         -3.7810130967        1.1801177638       -2.0036961498
 H         -4.8289992611        1.1856404821       -2.3022477093
 H         -3.1671412572        0.9655776914       -2.8818978507
 H         -5.4829605471        1.4733438507        1.7237514890
 H         -7.0553903195        1.7389742231        0.9692079640
 H         -6.2767536945        0.3874227620       -1.0133586030
 H         -6.4535596619       -0.4994972073        0.5106292021
 O         -4.2244090485       -1.2052202983        0.8556843736
 C         -2.9933860020       -1.8313084905        0.9468068683
 O         -2.9153255632       -2.6662480003        1.8703237427
 H          0.1629105302        0.2673656372       -0.2044077280
 C          0.6509432462       -0.1903537623        0.6435480796
 C          0.3224991979       -1.4931093630        0.9943276808
 C          0.9639831924       -2.0693307912        2.0841431060
 C          1.9074340045       -1.3572527290        2.8050167166
 C          2.2338404240       -0.0605142150        2.4508753229
 C          1.5997585607        0.5232777639        1.3613748496
 N          1.9331296236        1.8398805956        0.9814137109
 S          3.5401081245        2.1293134597        0.6014734450
 O          4.3237867282        2.0873624877        1.8101453882
 O          3.5466624013        3.3799754557       -0.1218228949
 C          4.0003615637        0.7844289566       -0.4741793823
 C          3.7267230804        0.8992961880       -1.8227329801
 C          4.0170127177       -0.1663409097       -2.6590387387
 C          4.5595169653       -1.3284444582       -2.1320965395
 C          4.8258792990       -1.4288695317       -0.7754460765
 C          4.5458762334       -0.3634632542        0.0652932350
 H          4.7458183329       -0.3997318358        1.1233197533
 H          5.2469713162       -2.3341004374       -0.3691233911
 H          4.7740314175       -2.1609696634       -2.7828648914
 H          3.8110980531       -0.0896668787       -3.7144886445
 H          3.3041404304        1.8198027985       -2.1928519521
 H          1.3447127928        2.1918007114        0.2392024236
 H          2.9707089111        0.5072820242        2.9958016266
 H          2.3930999555       -1.8160208668        3.6527694995
 H          0.7088520762       -3.0784627427        2.3729058528
 C         -0.6887017995       -2.2700478009        0.1922010205
 H         -0.9598489240       -3.1613814684        0.7791780640
 C         -0.1305034018       -2.7637669638       -1.1376090769
 C          1.0963899196       -2.2088493742       -1.7894886212
 C          1.1349371847       -3.5695507828       -1.1666077590
 H          1.1814904778       -4.4363349898       -1.8078373349
 H          1.6742125432       -3.6745229321       -0.2373506464
 H          1.0932090737       -2.1257676076       -2.8652741087
 H          1.6248873466       -1.4084353571       -1.2967365641
 H         -0.9242974078       -3.0819267379       -1.8063751929
 O         -1.3301958617       -0.1589236103       -1.8105368622
