  62
        -98.94374333
 C          1.6072866263        1.5295791206        0.1460512076
 C          1.7779957466        0.7029028333       -0.9911776862
 C          2.8239766364       -0.3294355536       -0.8899165953
 C          3.5247477255       -0.4578242438        0.2509529325
 C          4.6406642085       -1.4367095117        0.4736601020
 C          4.1508291906       -2.7691565739        1.0549053985
 C          2.9813884338       -3.3910304513        0.2926422247
 H          2.7677550964       -4.3565655072        0.7557516233
 H          2.0942348803       -2.7708240978        0.4261493825
 C          3.2238748415       -3.5872586445       -1.2092969788
 H          4.2932281759       -3.5668671602       -1.4225212810
 H          2.8552225314       -4.5743437130       -1.4961530967
 C          2.5075752195       -2.5704126016       -2.1008694436
 H          2.5374564120       -2.9422105720       -3.1288002427
 H          1.4552618273       -2.5083802883       -1.8103531583
 C          3.0988628098       -1.1546257742       -2.1165482264
 H          4.1739146020       -1.2121270157       -2.3027426729
 H          2.6388094361       -0.6132141104       -2.9486487431
 H          3.8381390617       -2.6043702161        2.0884156303
 H          4.9916973067       -3.4651806009        1.0632002452
 H          5.1491164800       -1.6104707334       -0.4733278672
 H          5.3465358522       -0.9866825520        1.1743169246
 O          3.2851431119        0.3054859556        1.3469919254
 C          2.3453343711        1.3212674767        1.3177112526
 O          2.2615676639        1.9664972807        2.3797922436
 H         -0.9143829394        1.4283474809       -1.6042200124
 C         -1.4287315562        1.5950325422       -0.6697694060
 C         -0.7740836099        2.2574374641        0.3578461231
 C         -1.4406647305        2.4301875211        1.5657181138
 C         -2.7289747101        1.9529084822        1.7365322042
 C         -3.3669031873        1.2659775621        0.7185658647
 C         -2.7003725511        1.0751699940       -0.4843706279
 N         -3.2888081397        0.2693919051       -1.4823483246
 S         -3.6581793360       -1.2862580690       -0.9636402032
 O         -3.3731699991       -2.1579943460       -2.0820160082
 O         -5.0196352021       -1.3119194956       -0.4880384546
 C         -2.5570681622       -1.6025503813        0.4100369892
 C         -1.1992148887       -1.4114338730        0.2402066639
 C         -0.3667467118       -1.5328848456        1.3400410845
 C         -0.8914250286       -1.8758735917        2.5760668869
 C         -2.2514533373       -2.0973697835        2.7226205396
 C         -3.0950768482       -1.9436808029        1.6342620431
 H         -4.1628107219       -2.0697275374        1.7107741640
 H         -2.6571520786       -2.3692783839        3.6835510832
 H         -0.2326765291       -1.9622575345        3.4257285728
 H          0.6881748032       -1.3319815278        1.2312636282
 H         -0.8017256525       -1.1532029073       -0.7292432616
 H         -2.7249390534        0.2222609435       -2.3204148286
 H         -4.3554820403        0.8533658080        0.8429746939
 H         -3.2349857264        2.1009174039        2.6779939838
 H         -0.9324399275        2.9257550145        2.3799821532
 C          0.6527044730        2.7173758930        0.1840357252
 H          0.9318401835        3.2861428662        1.0803709339
 C          0.8104306788        3.6210281592       -1.0237463582
 C          0.3269552945        5.0362010683       -0.9396162002
 C          1.7971565590        4.7465383917       -0.9711985985
 H          2.3534034479        4.9863291000       -1.8650597355
 H          2.3624213234        4.8741684389       -0.0592908117
 H         -0.1295277923        5.4775509026       -1.8122581644
 H         -0.1046593773        5.3619527651       -0.0053203199
 H          0.6999829584        3.1073518828       -1.9694956868
 O          1.1219471215        0.8128912575       -2.0624144997
