  62
        -98.94589324
 C         -1.5750944958       -1.4694436240       -0.2099534150
 C         -1.5357134509       -0.0820288326       -0.4908243729
 C         -2.8416738233        0.5679874847       -0.6736325718
 C         -3.9640058210       -0.1677424488       -0.5778544508
 C         -5.3574502271        0.3800016280       -0.6829434607
 C         -5.8999331544        0.7846726663        0.6951153770
 C         -4.9392280054        1.6533174271        1.5074445233
 H         -5.4394987253        1.8986275046        2.4469201390
 H         -4.0534229629        1.0657668872        1.7595086081
 C         -4.5046634364        2.9476878565        0.8058054461
 H         -5.1947905329        3.1771319740       -0.0069374380
 H         -4.5633499052        3.7698144235        1.5222540155
 C         -3.0733492592        2.9270090742        0.2657776534
 H         -2.3882592441        2.6052958622        1.0541292167
 H         -2.8009606012        3.9491335220       -0.0096312437
 C         -2.8384577985        2.0421355566       -0.9646272043
 H         -3.5689167222        2.2853354062       -1.7387930087
 H         -1.8379496585        2.2645710345       -1.3465580186
 H         -6.8425460835        1.3164832517        0.5527377856
 H         -6.1061079362       -0.1237097906        1.2661816793
 H         -5.3548906547        1.2394578727       -1.3504699930
 H         -6.0015352253       -0.3938716412       -1.1039323391
 O         -3.9587730679       -1.5014933254       -0.3195319253
 C         -2.7684734884       -2.1830902004       -0.1180945660
 O         -2.9046820893       -3.3977069119        0.1350658484
 H          2.3611537554       -1.3612112082       -0.0496170095
 C          1.8537833195       -1.1420759997        0.8738021449
 C          0.5381582304       -1.5291229339        1.0680321139
 C         -0.0621223582       -1.2588156269        2.2958191980
 C          0.6308549466       -0.5985032534        3.2910319011
 C          1.9337207448       -0.1807767227        3.0801181047
 C          2.5456480008       -0.4574347131        1.8642342858
 N          3.8673767914       -0.0609103729        1.6245641086
 S          4.3840405822        0.3337890835        0.0873416959
 O          4.5987357056       -0.8648093288       -0.6853950422
 O          5.5612892083        1.1467633184        0.3142620135
 C          3.1080885531        1.3307471480       -0.6592364468
 C          2.6654582522        2.4515774351        0.0127909955
 C          1.7025764696        3.2501206592       -0.5800556675
 C          1.2050348553        2.9195491743       -1.8299298968
 C          1.6606850298        1.7923280436       -2.4925059429
 C          2.6205642308        0.9877386865       -1.9024714711
 H          2.9966790718        0.0968009011       -2.3810535829
 H          1.2631929218        1.5309564210       -3.4607055836
 H          0.4519153630        3.5410714419       -2.2889886504
 H          1.3371721295        4.1234855628       -0.0637722149
 H          3.0745193874        2.6878986664        0.9819765583
 H          4.2745513766        0.5361743222        2.3284170326
 H          2.4722630841        0.3499030267        3.8502782575
 H          0.1503957977       -0.3947888788        4.2363318963
 H         -1.0866253831       -1.5689177638        2.4539787141
 C         -0.2715858419       -2.2191146448       -0.0019433200
 H         -0.5423791878       -3.2231580679        0.3556230152
 C          0.4629373062       -2.3481336174       -1.3200164965
 C          1.4242230963       -3.4754430057       -1.5429770394
 C          0.1051350355       -3.4624193346       -2.2545348076
 H          0.0916610035       -3.2624922510       -3.3154640968
 H         -0.6587102606       -4.1549001033       -1.9313753976
 H          1.5591644654       -4.1829700879       -0.7386684028
 H          2.3234413808       -3.2839955251       -2.1097707826
 H          0.6965203580       -1.3840669603       -1.7583285775
 O         -0.4703971516        0.5782027012       -0.5817582720
