  62
        -98.93911230
 C          1.6885714101        0.9362425501        0.1773842002
 C          2.8145194499        0.6640113892        0.9859857401
 C          3.6220333198       -0.5215784106        0.6372582292
 C          3.2322184799       -1.2862351796       -0.3997642415
 C          3.9088793498       -2.5090263392       -0.9595388125
 C          5.1481676700       -2.1654547186       -1.8023488120
 C          6.0615002600       -1.1008297293       -1.2000420009
 H          5.4865458601       -0.1884084493       -1.0313830002
 H          6.8309697102       -0.8664290187       -1.9403182606
 C          6.7664134598       -1.5031655305        0.0931823089
 H          7.4413613198       -0.6867105608        0.3626664897
 H          7.3766373297       -2.3900207604       -0.0922313018
 C          5.8575316495       -1.7823591214        1.2919127785
 H          6.4939560994       -1.8192091723        2.1810488485
 H          5.3887054794       -2.7593673413        1.2091989975
 C          4.8040069196       -0.7113289415        1.5571803892
 H          5.2959893597        0.2661277484        1.6199820502
 H          4.3779389394       -0.8817478924        2.5537626090
 H          4.8045104202       -1.7978863377       -2.7722742617
 H          5.7154010199       -3.0823535685       -1.9709944827
 H          3.1788518799       -3.0063967685       -1.6021830531
 H          4.1633541196       -3.1951948399       -0.1569922931
 O          2.1220548100       -0.9995776288       -1.1383487915
 C          1.3316136601        0.1107081111       -0.8886512806
 O          0.3610287503        0.2334512219       -1.6570539607
 O          3.1437068098        1.3857781883        1.9674866008
 C          0.8580729602        2.1681434799        0.4741002511
 C         -0.5935046199        1.8462653199        0.7374613006
 C         -1.5962283198        2.7899295602        0.5382709412
 C         -2.9191698499        2.4827230501        0.8026617507
 C         -3.2786684201        1.2238060097        1.2478914796
 C         -2.2875225502        0.2691144795        1.4334419189
 C         -0.9579963502        0.5917338595        1.2040793394
 H         -0.1946032103       -0.1584870007        1.3692536689
 N         -2.6450066905       -1.0314276809        1.8264467377
 S         -3.9668242104       -1.7283193300        1.0671656068
 O         -5.1657246705       -1.3808428005        1.7911715669
 O         -3.6662558406       -3.1428037800        1.0073397556
 C         -4.0470622501       -1.0284200386       -0.5740628226
 C         -5.2531184599       -0.5345511780       -1.0306906523
 C         -5.3152632196        0.0185496131       -2.2992759319
 C         -4.1728051095        0.0794257737       -3.0826000216
 C         -2.9697475896       -0.4219217369       -2.6107508418
 C         -2.9052053699       -0.9885360180       -1.3483673323
 H         -1.9701734900       -1.3711743685       -0.9712051225
 H         -2.0675440595       -0.3609923165       -3.1980335516
 H         -4.2171005493        0.5226102245       -4.0649412812
 H         -6.2502696895        0.4078879536       -2.6686810217
 H         -6.1114568300       -0.5854458085       -0.3804538725
 H         -1.8685862206       -1.6757551310        1.8564313172
 H         -4.3048667102        0.9629698197        1.4511162792
 H         -3.6826105897        3.2299018703        0.6512258713
 H         -1.3373350996        3.7705051504        0.1740300921
 H          1.2853586900        2.5909491190        1.3966114515
 C          1.0256777905        3.1800997909       -0.6451851280
 C          1.1040719506        4.6475518306       -0.3508071567
 C          2.3325935606        3.9021439408       -0.7742699771
 H          2.7327645308        4.0758574917       -1.7619022769
 H          3.0865820604        3.6940618001       -0.0287727172
 H          0.6593189908        5.3379229513       -1.0516655861
 H          1.0370551505        4.9579625597        0.6811365136
 H          0.5360455506        2.8667063217       -1.5604264083
