  62
        -98.94430620
 C          1.9940611729        1.3318331258        0.0218680453
 C          2.3118840499        0.3639040207       -0.9617581124
 C          3.7043284486       -0.1053991342       -0.9684489822
 C          4.5919272272        0.3995353140       -0.0935108477
 C          6.0490471297        0.0379178518        0.0031802720
 C          6.3254503017       -1.2226090016        0.8339993426
 C          5.9238175477       -2.5403967919        0.1702006409
 H          6.3598805259       -2.5912564372       -0.8280028466
 H          6.3674733071       -3.3446141620        0.7605285318
 C          4.4083424832       -2.7703529321        0.0846091786
 H          3.8969925575       -2.0984687355        0.7781858127
 H          4.1759148346       -3.7899833717        0.4004303574
 C          3.8159619747       -2.5835245219       -1.3123400708
 H          2.7349868431       -2.7333615177       -1.2473136715
 H          4.2208430969       -3.3420497125       -1.9861345070
 C          4.0684093159       -1.2000038943       -1.9257852890
 H          5.1104495415       -1.1087097318       -2.2311704733
 H          3.4337069833       -1.0957217994       -2.8091439400
 H          7.3993144987       -1.2531223732        1.0322063880
 H          5.8129614847       -1.1277781626        1.7941641650
 H          6.4638298403       -0.0861632594       -0.9975214027
 H          6.5471473037        0.8825953441        0.4840403345
 O          4.2535400471        1.3449035307        0.8223271592
 C          2.9536439563        1.8083557045        0.9211623111
 O          2.7785517888        2.6436130259        1.8305623406
 O          1.4962441653       -0.0924346154       -1.8061153246
 C          0.5900014090        1.8923100783        0.1930421575
 C         -0.2910969974        0.8474314320        0.8340169617
 C         -0.5034916840        0.8602359728        2.2084344127
 C         -1.3012816098       -0.0971826050        2.8095771460
 C         -1.9014646507       -1.0882326332        2.0529181600
 C         -1.6863096755       -1.1141747657        0.6815075903
 C         -0.8951330928       -0.1470286837        0.0784182367
 H         -0.7168441083       -0.1888518456       -0.9848030833
 N         -2.3011209076       -2.1176279208       -0.0984728675
 S         -3.9769959316       -2.1079258066       -0.0867913215
 O         -4.4432439933       -2.6159190170        1.1785764273
 O         -4.3828245552       -2.8475638676       -1.2603113470
 C         -4.4030011195       -0.3840188106       -0.2502889481
 C         -4.6589122757        0.3645960517        0.8805519756
 C         -4.8941292171        1.7232532494        0.7436332171
 C         -4.8682728715        2.3063477479       -0.5134908954
 C         -4.6149607699        1.5390738711       -1.6402215150
 C         -4.3726359149        0.1816100794       -1.5093774529
 H         -4.1743968499       -0.4494584897       -2.3610840489
 H         -4.6019581700        1.9940678389       -2.6178625718
 H         -5.0474698983        3.3649421523       -0.6167842191
 H         -5.0925751473        2.3221659596        1.6178087827
 H         -4.6746064759       -0.1271722521        1.8390501889
 H         -1.9655319826       -2.1277781074       -1.0516372061
 H         -2.5333884901       -1.8386546347        2.5002703423
 H         -1.4575538785       -0.0721491482        3.8773838725
 H         -0.0260087032        1.6255771408        2.8038637154
 H          0.6892586842        2.7252324903        0.9011508994
 C          0.0053038635        2.4239602562       -1.1009221311
 C         -1.2467916178        3.2449394304       -1.0420623391
 C          0.0602838459        3.8936976133       -1.3832551881
 H          0.2280219254        4.2159998901       -2.4000367143
 H          0.5253363225        4.5287513495       -0.6433095846
 H         -1.9807874810        3.1209876734       -1.8228835985
 H         -1.6706274905        3.4350538222       -0.0676763157
 H          0.1319483702        1.7554075822       -1.9419810731
