  62
        -98.93763026
 C         -2.6381463050       -1.1182729869        0.2063545360
 C         -2.7219837865       -0.2499892482       -0.9078502495
 C         -3.5274980337        0.9693785769       -0.7212990492
 C         -4.1304906926        1.1904052424        0.4593034193
 C         -5.0195407802        2.3432410658        0.8532516317
 C         -4.5694530038        3.7530979264        0.4427323139
 C         -3.0488722042        3.9610985118        0.3830940714
 H         -2.7912961524        4.8559514858        0.9529998095
 H         -2.5361344132        3.1193310208        0.8524269213
 C         -2.5264693086        4.1470174925       -1.0438891243
 H         -3.2086666995        4.8096433258       -1.5808312551
 H         -1.5548157635        4.6448269727       -0.9995459891
 C         -2.3402756605        2.8618150658       -1.8499845715
 H         -1.4927667288        2.2938910634       -1.4556941292
 H         -2.0865983350        3.1418723452       -2.8750177006
 C         -3.5549693498        1.9199600989       -1.8831794570
 H         -4.4868518163        2.4783307174       -1.9257533395
 H         -3.4750996678        1.3015747024       -2.7811502589
 H         -4.9981188891        4.0040923403       -0.5264713657
 H         -5.0026070771        4.4455542854        1.1664224773
 H         -6.0191969672        2.1554860810        0.4511774546
 H         -5.0945091638        2.2848601993        1.9417860316
 O         -4.0232384145        0.3227030222        1.5067393367
 C         -3.2701170325       -0.8357294586        1.4146433662
 O         -3.2366198620       -1.5140852408        2.4628677902
 H         -0.3422052351       -0.4005746965        1.1192287979
 C          0.2281433201       -0.9730269640        0.3963135944
 C         -0.3783966475       -2.0477379459       -0.2424423233
 C          0.3723629551       -2.7838200715       -1.1495400849
 C          1.6839003259       -2.4340047824       -1.4214652664
 C          2.2742603699       -1.3488420284       -0.8010680693
 C          1.5376794540       -0.6133300471        0.1184488132
 N          2.1232138002        0.5008808248        0.7465093385
 S          3.6081252865        0.2898315173        1.5034048677
 O          3.7678364297       -1.0629147454        1.9852342566
 O          3.6758206323        1.3382953448        2.4981130460
 C          4.7966644602        0.6268931635        0.2217047263
 C          4.7119726924        1.8337144822       -0.4446483365
 C          5.6357962813        2.1147196856       -1.4386231447
 C          6.6246600039        1.1913449360       -1.7446156161
 C          6.6984350042       -0.0140132154       -1.0634606012
 C          5.7763026947       -0.3022650968       -0.0691326118
 H          5.7898286568       -1.2286822477        0.4826153577
 H          7.4682017815       -0.7301053768       -1.3024712766
 H          7.3420069273        1.4129337787       -2.5190264253
 H          5.5811230875        3.0507534653       -1.9708893322
 H          3.9303138347        2.5243644447       -0.1749849696
 H          1.4898470964        1.0019585816        1.3526733647
 H          3.2916293528       -1.0676198767       -1.0185578756
 H          2.2530413197       -3.0123303576       -2.1330692052
 H         -0.0709822351       -3.6303984158       -1.6473696126
 C         -1.8075354753       -2.3841317795        0.1129538566
 H         -1.8101123404       -2.8263252368        1.1208684506
 C         -2.4532622055       -3.3605821916       -0.8487806579
 C         -2.3094164618       -4.8374680332       -0.6410810884
 C         -3.6236968989       -4.1680183747       -0.3770512012
 H         -4.4404833361       -4.3420054998       -1.0612345620
 H         -3.9354180831       -4.0337809531        0.6489744061
 H         -2.2273596580       -5.4748885805       -1.5085644323
 H         -1.7319068710       -5.1701022302        0.2083798367
 H         -2.4813004572       -2.9837188553       -1.8645974344
 O         -2.1559779486       -0.4792769101       -2.0070110566
