  62
        -98.94442777
 C          1.8247459169        0.0364738768       -0.4449666606
 C          2.9854481340       -0.3001682600       -1.1818616364
 C          4.2598698956        0.1722885224       -0.6255038425
 C          4.2529032251        0.8983528474        0.5074710350
 C          5.4807250444        1.3989482018        1.2106320645
 C          5.9709527711        0.3891794228        2.2578091171
 C          6.0892308648       -1.0403935031        1.7291753134
 H          6.4723914198       -1.6576103608        2.5447154133
 H          5.0917950878       -1.4133552856        1.4854631097
 C          6.9999658095       -1.1904990127        0.5025617563
 H          7.6490817660       -0.3185909973        0.4142858227
 H          7.6438110111       -2.0602585180        0.6493037225
 C          6.2563846384       -1.4046974876       -0.8170972858
 H          5.5368009222       -2.2193171170       -0.7035852431
 H          6.9849102479       -1.7140152151       -1.5712289436
 C          5.5155191716       -0.1815325128       -1.3719724607
 H          6.1942303869        0.6727775500       -1.4125039975
 H          5.2000465285       -0.4190687484       -2.3921527786
 H          6.9407381942        0.7228277656        2.6315722101
 H          5.2666383186        0.3883199457        3.0930510071
 H          6.2626332601        1.5863948358        0.4772568196
 H          5.2318731360        2.3362486546        1.7112022447
 O          3.1156441595        1.2227498102        1.1748488548
 C          1.8742920966        0.7938057298        0.7250723138
 O          0.9183966686        1.1499944796        1.4398944008
 H         -2.1330167195       -0.0875825956       -0.1043919180
 C         -1.7533164901        0.7452619635       -0.6716272196
 C         -0.4550552054        0.7289041246       -1.1573191013
 C         -0.0021285752        1.8252885956       -1.8875159970
 C         -0.8184681293        2.9180090257       -2.1010380289
 C         -2.1055719870        2.9409296488       -1.5930142030
 C         -2.5738806408        1.8470400189       -0.8759078302
 N         -3.8916281768        1.8256281688       -0.4019350889
 S         -4.3273419292        1.0152824975        0.9923551733
 O         -5.6314242162        1.5570120829        1.3159170311
 O         -3.3290807835        1.1152150974        2.0300055467
 C         -4.5283874821       -0.6786590912        0.4815477838
 C         -5.1148183197       -0.9476021948       -0.7394372673
 C         -5.3104854050       -2.2681477953       -1.1108809675
 C         -4.9282508747       -3.2920603903       -0.2575931545
 C         -4.3455605313       -3.0054041779        0.9673638551
 C         -4.1422156671       -1.6862927459        1.3427681980
 H         -3.6799658385       -1.4177752010        2.2798684187
 H         -4.0484842058       -3.8020725120        1.6312018085
 H         -5.0822801817       -4.3192047001       -0.5482159546
 H         -5.7611072957       -2.4952086004       -2.0635168213
 H         -5.4008516870       -0.1276995055       -1.3765024620
 H         -4.4027592974        2.6886761680       -0.5131675104
 H         -2.7424696784        3.7981491321       -1.7500354555
 H         -0.4497844843        3.7635375450       -2.6622637945
 H          1.0064892338        1.8110638761       -2.2779068793
 C          0.4750609735       -0.4397492709       -0.9500760940
 H          0.6785305490       -0.8928119859       -1.9323074197
 C         -0.0858971970       -1.5068005394       -0.0337493479
 C         -0.9701073609       -2.5825135911       -0.5882615769
 C          0.4281785249       -2.9086795759       -0.1598253063
 H          0.5729458481       -3.4870993068        0.7402948516
 H          1.1692735851       -3.0958566044       -0.9232030213
 H         -1.7905278403       -2.9386194483        0.0159430981
 H         -1.1815463856       -2.5555460693       -1.6463164739
 H         -0.2896976534       -1.1344306421        0.9650215080
 O          2.9553064980       -0.9589960487       -2.2559761975
