  62
        -98.94790369
 C          1.1563531491        1.1301191790       -0.0178892276
 C          1.6008498384        0.1364761294        0.8856805420
 C          2.5445170008       -0.8469522507        0.3447026320
 C          2.9018831230       -0.7854761560       -0.9508633746
 C          3.8231512844       -1.7410710640       -1.6598014955
 C          5.3147149221       -1.4239933807       -1.4841199220
 C          5.8865981326       -1.7281824371       -0.0988489098
 H          5.6375472053       -2.7533093365        0.1773189620
 H          6.9735788384       -1.6675687757       -0.1811580466
 C          5.4198424918       -0.7670216016        1.0031576717
 H          5.0019309324        0.1332961040        0.5469723461
 H          6.2785298680       -0.4546565752        1.6015699659
 C          4.3885390280       -1.3584879951        1.9638243189
 H          4.8377225826       -2.1826538870        2.5222732613
 H          4.1018612512       -0.5830242252        2.6784473013
 C          3.1121806611       -1.8695020098        1.2825210839
 H          3.3126364186       -2.8009024385        0.7526481621
 H          2.3640960204       -2.0634723351        2.0555620652
 H          5.4771937710       -0.3704420838       -1.7230574538
 H          5.8616268362       -2.0195797505       -2.2187533502
 H          3.6213299843       -2.7589024527       -1.3235302842
 H          3.5778441291       -1.6752864662       -2.7222670685
 O          2.4340451720        0.1713549276       -1.7957319859
 C          1.5550645044        1.1512532737       -1.3543929765
 O          1.2114895387        1.9645854974       -2.2336717099
 H         -0.9116284445       -0.0286959237       -0.6441156706
 C         -1.5631435232        0.8251035421       -0.7429804643
 C         -1.1516390305        2.0615212301       -0.2670422104
 C         -1.9973936221        3.1510212866       -0.4442418749
 C         -3.2116219448        2.9976389362       -1.0900295140
 C         -3.6192817500        1.7605955981       -1.5558807468
 C         -2.7818136348        0.6647063885       -1.3828849124
 N         -3.1467551860       -0.6060511924       -1.8472040450
 S         -2.6256030896       -1.9837446371       -1.0633567752
 O         -1.2311030460       -2.2298248788       -1.3371825011
 O         -3.5449870672       -3.0089241818       -1.5107113592
 C         -2.8835977907       -1.6570939755        0.6707782299
 C         -1.8083433729       -1.5303852996        1.5247195048
 C         -2.0388756402       -1.2199014095        2.8554401548
 C         -3.3371734958       -1.0496528021        3.3090157670
 C         -4.4102710571       -1.1954594846        2.4420910686
 C         -4.1841381272       -1.4973260673        1.1095793572
 H         -4.9925542355       -1.6241867752        0.4081015716
 H         -5.4193020354       -1.0688344240        2.7998924954
 H         -3.5121522713       -0.8036433462        4.3444994333
 H         -1.1943555700       -1.0977058095        3.5150125676
 H         -0.8067504176       -1.6621215378        1.1459165414
 H         -4.0900966070       -0.6893847168       -2.1945042252
 H         -4.5667566481        1.6430711168       -2.0585424777
 H         -3.8542200583        3.8538017284       -1.2277749800
 H         -1.7007541972        4.1217897447       -0.0821209751
 C          0.1644412262        2.1679330264        0.4669238397
 H         -0.0232607731        1.9179070762        1.5231870951
 C          0.7667348869        3.5577564951        0.3973386767
 C          0.4476709001        4.5827111852        1.4434976650
 C          1.8034058009        3.9463906220        1.4076254501
 H          2.6467885266        4.5361455997        1.0811209469
 H          2.0483210616        3.2196170477        2.1685773391
 H         -0.2213508608        4.2950315132        2.2403909014
 H          0.3612166353        5.6159047974        1.1422553899
 H          0.9135069388        3.8934366414       -0.6231078272
 O          1.2185962779        0.0683539605        2.0852358516
