  62
        -98.94077621
 C         -1.8480498962       -0.7626492910        0.5056792468
 C         -2.3069437513        0.0495522985       -0.5611590140
 C         -3.4408136626        0.9353197347       -0.2476928382
 C         -3.9235437631        0.9794330952        1.0064339324
 C         -5.1088942508        1.7886275348        1.4443867459
 C         -6.4077445110        0.9787024196        1.3260863538
 C         -6.5837062297        0.2856985126       -0.0251706860
 H         -5.8136436850       -0.4811451642       -0.1363511745
 H         -7.5471365518       -0.2281461535       -0.0036398156
 C         -6.5348107578        1.2299202292       -1.2345484284
 H         -7.3489002421        0.9702922678       -1.9144954286
 H         -6.7001853292        2.2577253423       -0.9093422488
 C         -5.2385938211        1.1573752458       -2.0440025409
 H         -5.0218256076        0.1158807655       -2.2949620372
 H         -5.3938642158        1.6939290478       -2.9837639979
 C         -3.9983365915        1.7609163454       -1.3727211354
 H         -3.2051256825        1.8159100300       -2.1244634832
 H         -4.2199297929        2.7752692294       -1.0342929606
 H         -6.4111681629        0.2138847948        2.1063349822
 H         -7.2498047418        1.6496760326        1.5052810812
 H         -4.9635472222        2.0757051475        2.4873037157
 H         -5.1727151015        2.6888152304        0.8360234183
 O         -3.4014588545        0.2471068873        2.0237234187
 C         -2.3597635497       -0.6386933246        1.7996962007
 O         -1.9714221940       -1.2389187710        2.8222396814
 O         -1.8098754635        0.0446808590       -1.7158391983
 C         -0.7097078745       -1.7521358765        0.3216650116
 C          0.4241243357       -1.0978782437       -0.4293491264
 C          0.9336403371       -1.5708790113       -1.6305266088
 C          1.9726005885       -0.9069001850       -2.2601372214
 C          2.5296018485        0.2302827811       -1.7062577654
 C          2.0356367821        0.7043831467       -0.4970240122
 C          0.9994578092        0.0351669107        0.1345964698
 H          0.6098168166        0.4096686286        1.0739433877
 N          2.6035707217        1.8519362174        0.0819407663
 S          4.2710620684        1.9822930839        0.0979225291
 O          4.5740406832        2.8148918704        1.2411870882
 O          4.7336873766        2.4731117992       -1.1762983324
 C          4.8686550513        0.3210657584        0.3573663476
 C          5.6534659198       -0.2885468114       -0.5999328093
 C          6.0765859952       -1.5912809397       -0.3895147439
 C          5.7062754956       -2.2592192048        0.7670908913
 C          4.9205931750       -1.6315669759        1.7219121854
 C          4.4961679116       -0.3289513273        1.5174009472
 H          3.8887958089        0.1885077666        2.2429343283
 H          4.6337085293       -2.1520250862        2.6216458682
 H          6.0315889850       -3.2748496336        0.9279319478
 H          6.6891648193       -2.0811180287       -1.1290473194
 H          5.9160634240        0.2667047948       -1.4855623201
 H          2.2040732626        2.1064668298        0.9727001078
 H          3.3242580207        0.7691502481       -2.1962134232
 H          2.3492947879       -1.2766798457       -3.2014682772
 H          0.4984137655       -2.4421410059       -2.0908959552
 H         -0.3532879514       -1.9635678120        1.3434699580
 C         -1.1371818785       -3.0875240949       -0.2692046442
 C         -2.5266268296       -3.6108823634       -0.0627364655
 C         -2.0800438332       -3.1893542650       -1.4287846017
 H         -1.9023456944       -3.9575144911       -2.1673093694
 H         -2.4674851727       -2.2711583922       -1.8402408444
 H         -2.6539381357       -4.6641276600        0.1377818382
 H         -3.2258395855       -2.9796724074        0.4669756427
 H         -0.3390774626       -3.8219421776       -0.2246648492
