  62
        -98.94551615
 C         -2.2320276909       -0.9912687026        0.2087387423
 C         -1.5658546339       -0.2635952372       -0.8086531894
 C         -2.0195685102        1.1200452722       -1.0146227894
 C         -2.9702626337        1.6313685980       -0.2138509087
 C         -3.5143042063        3.0273602790       -0.3025247652
 C         -2.7417970797        3.9976076038        0.6005187977
 C         -1.2233146751        3.9275874278        0.4357393381
 H         -0.7909040386        4.6953830440        1.0821849711
 H         -0.8570531216        2.9656559364        0.8033531485
 C         -0.7273880891        4.1322794136       -1.0024473064
 H         -1.5030398847        4.6128280606       -1.6009493192
 H          0.1320981018        4.8056988679       -0.9798763459
 C         -0.2669768954        2.8457015400       -1.6902877642
 H          0.4011485746        2.3042425009       -1.0158479332
 H          0.3071402915        3.1181350753       -2.5801859632
 C         -1.3843879473        1.8933320169       -2.1358510743
 H         -2.1399865566        2.4482849060       -2.6968859355
 H         -0.9399379414        1.1474772733       -2.8013919319
 H         -3.0847998340        5.0120912134        0.3866098175
 H         -2.9828037856        3.7702314685        1.6417724215
 H         -3.4651202602        3.3625003258       -1.3369443987
 H         -4.5590227667        3.0070078216        0.0140255892
 O         -3.5344439109        0.9282364698        0.8027415509
 C         -3.1662242014       -0.3837669866        1.0495097995
 O         -3.7351088848       -0.8970833689        2.0361279447
 O         -0.6528110265       -0.7391515211       -1.5309142071
 C         -1.8701308356       -2.4353406254        0.5255410502
 C         -0.3677568448       -2.5583946743        0.5518479720
 C          0.3678740625       -3.3969530044       -0.2748180619
 C          1.7519240633       -3.3702282933       -0.2505196100
 C          2.4287545317       -2.4929948153        0.5778652395
 C          1.6996712562       -1.6659838460        1.4209015695
 C          0.3180834678       -1.7232724144        1.4259251035
 H         -0.2430852665       -1.0591957236        2.0736017268
 N          2.3949996314       -0.6915924291        2.1992508188
 S          2.3126761444        0.8137934273        1.4301462523
 O          3.0371437845        1.7301861332        2.2867876489
 O          0.9431982798        1.1895448225        1.1508352038
 C          3.2225971610        0.5183961902       -0.0656368471
 C          2.5643664038        0.0735612831       -1.1949786132
 C          3.3107422033       -0.1980169785       -2.3319333861
 C          4.6860996438       -0.0260303508       -2.3190969319
 C          5.3300734758        0.4186731550       -1.1737402064
 C          4.5930961215        0.6912331521       -0.0331827248
 H          5.0444657167        1.0406358822        0.8808890601
 H          6.4000804335        0.5505325988       -1.1656463293
 H          5.2591458278       -0.2414093673       -3.2072900895
 H          2.8059990362       -0.5489323178       -3.2176039917
 H          1.4933708804       -0.0633991204       -1.1799099490
 H          1.9999594399       -0.5817856866        3.1246993365
 H          3.5048673655       -2.4313344955        0.5758288728
 H          2.3095326735       -4.0199941486       -0.9070512707
 H         -0.1442028611       -4.0449346805       -0.9671056881
 H         -2.2446677906       -2.6039738634        1.5492061838
 C         -2.5524127917       -3.4630716663       -0.3639421776
 C         -3.8977058724       -3.1852402098       -0.9638471626
 C         -2.6895373492       -3.2785595697       -1.8440915049
 H         -2.5873991572       -4.1463825609       -2.4789762148
 H         -2.2933606999       -2.3723659253       -2.2732102416
 H         -4.6218914017       -3.9855107099       -0.9916618915
 H         -4.3310267631       -2.2110216465       -0.7874708923
 H         -2.3862848364       -4.4760094518       -0.0102679576
