  62
        -98.94576805
 C         -2.3111159584       -0.9658465122        0.2797594164
 C         -2.1369710781       -0.0777670129       -0.8094238763
 C         -2.6041999073        1.2993803147       -0.5916497721
 C         -3.1151581774        1.6419114395        0.6049738376
 C         -3.5629158380        3.0236478955        0.9826937535
 C         -2.4133125614        3.8322457942        1.6007675786
 C         -1.1229484458        3.8025319183        0.7807813427
 H         -0.3984545040        4.4358034646        1.2976109851
 H         -0.7211030133        2.7863818458        0.7813645897
 C         -1.2844349323        4.2801970022       -0.6690852139
 H         -2.2118016244        4.8449395628       -0.7707877886
 H         -0.4656841425        4.9610404064       -0.9097269322
 C         -1.2566128274        3.1586891303       -1.7087549914
 H         -0.3803240121        2.5268618740       -1.5459910509
 H         -1.1574999715        3.6138095270       -2.6974237071
 C         -2.4952698534        2.2558773344       -1.7458550997
 H         -3.3970137169        2.8669626207       -1.8228831087
 H         -2.4232239503        1.6332451982       -2.6422491011
 H         -2.7456828817        4.8649204260        1.7218180964
 H         -2.1995022748        3.4270825743        2.5927722294
 H         -3.9434304209        3.5308899988        0.0982508762
 H         -4.3678634224        2.9364590674        1.7144834949
 O         -3.2337915654        0.7683954094        1.6386109171
 C         -2.8406578127       -0.5529651216        1.5016877410
 O         -3.0015087448       -1.2470709696        2.5273545269
 H          0.0030031096       -1.2676297178        1.5949081772
 C          0.4397945620       -1.8239947785        0.7740442180
 C         -0.4019771803       -2.5000191121       -0.1015649698
 C          0.1662445879       -3.2158464844       -1.1460747278
 C          1.5415276157       -3.2478164809       -1.3044364768
 C          2.3759609999       -2.5803272810       -0.4274799484
 C          1.8179566398       -1.8595415613        0.6219350498
 N          2.6444999639       -1.1988459043        1.5461239429
 S          3.9630796387       -0.2992996166        1.0536623981
 O          4.9511989937       -1.1758884567        0.4775821225
 O          4.3662142221        0.4341238011        2.2314828147
 C          3.3562396884        0.8313252529       -0.1830016231
 C          3.4089125794        0.4850450885       -1.5179709036
 C          2.9098626851        1.3718531484       -2.4589359635
 C          2.3748388516        2.5837841990       -2.0519794743
 C          2.3300822506        2.9173725081       -0.7065737128
 C          2.8184792085        2.0314024029        0.2389722383
 H          2.8106145475        2.2569256931        1.2934644116
 H          1.9131727876        3.8604906561       -0.3923535512
 H          1.9907806842        3.2735903831       -2.7868051178
 H          2.9399244997        1.1140718271       -3.5052341930
 H          3.8461476073       -0.4582889730       -1.7993442742
 H          2.1386303263       -0.7171246197        2.2742574810
 H          3.4482151396       -2.6144098025       -0.5306149772
 H          1.9710572222       -3.8077394674       -2.1212376847
 H         -0.4655343840       -3.7467534292       -1.8384124450
 C         -1.8889574797       -2.4187018326        0.1479288131
 H         -2.0899841627       -2.8822333289        1.1250410431
 C         -2.7257662095       -3.1179156177       -0.9022368706
 C         -2.9557353498       -4.5959584436       -0.8176171177
 C         -4.0741743833       -3.6448987937       -0.5173255810
 H         -4.8839112809       -3.5579235265       -1.2261517572
 H         -4.3808739869       -3.5207603795        0.5114234809
 H         -3.0014953209       -5.1652094084       -1.7336962331
 H         -2.5060905072       -5.1256757837        0.0086727855
 H         -2.6274428688       -2.6683699911       -1.8832148521
 O         -1.6229153488       -0.4138354349       -1.9068300533
