  62
        -98.94496862
 C         -1.5322095096       -0.8746624311       -0.4493170195
 C         -2.8485047995       -1.3902247713       -0.4053312895
 C         -3.9278129597       -0.4049021614       -0.5581746294
 C         -3.6142156999        0.8906417886       -0.7434411692
 C         -4.6127215801        2.0039273185       -0.8711456091
 C         -4.9246366902        2.6301757983        0.4950252610
 C         -5.2611187701        1.6069530881        1.5796428808
 H         -4.3736327000        1.0055667882        1.7896013608
 H         -5.4952720302        2.1626052479        2.4902972809
 C         -6.4323357099        0.6769387279        1.2334959407
 H         -7.0210771000        1.1079456579        0.4229218808
 H         -7.0875204799        0.6001143477        2.1038706107
 C         -6.0223155597       -0.7486430320        0.8586741205
 H         -5.3553432596       -1.1514497320        1.6252695305
 H         -6.9220625496       -1.3697856221        0.8503141104
 C         -5.3416690096       -0.9119617717       -0.5064747295
 H         -5.2839134094       -1.9829504317       -0.7223460396
 H         -5.9504963997       -0.4390865117       -1.2798140494
 H         -5.7591355503        3.3234227081        0.3749178810
 H         -4.0522663603        3.2005442584        0.8218563310
 H         -4.1911607502        2.7699236486       -1.5240214890
 H         -5.5245403300        1.6177942884       -1.3225683092
 O         -2.3367828100        1.3464892189       -0.7898976392
 C         -1.2620857999        0.4826345290       -0.6285936493
 O         -0.1481539899        1.0335733392       -0.6672081592
 H          2.3716186504       -1.3741349404       -0.1963805295
 C          1.8705451104       -1.1914360906        0.7382741705
 C          0.5051623904       -1.3904045309        0.8604198405
 C         -0.0912664796       -1.1766163511        2.1012318205
 C          0.6573943403       -0.7562601311        3.1824085206
 C          2.0168009403       -0.5309661509        3.0492500706
 C          2.6239019603       -0.7543134406        1.8201236206
 N          4.0016697103       -0.5590571804        1.6610512906
 S          4.6459715402       -0.0707720601        0.2015837307
 O          4.6751466704       -1.1767125900       -0.7231014895
 O          5.9382185801        0.4775330101        0.5578261308
 C          3.5970519300        1.2295821598       -0.4200508392
 C          3.3369849798        2.3127207796        0.3944237410
 C          2.5483258997        3.3411154796       -0.0923368089
 C          2.0403753297        3.2724012997       -1.3795161689
 C          2.3143939299        2.1806633098       -2.1858962390
 C          3.0981812400        1.1467238399       -1.7026579492
 H          3.3277292702        0.2746411400       -2.2949977693
 H          1.9101696399        2.1262197399       -3.1843112991
 H          1.4195307296        4.0706061296       -1.7547427388
 H          2.3258482195        4.1899917995        0.5345148912
 H          3.7511996498        2.3427434896        1.3894230210
 H          4.4725340002       -0.1363676104        2.4467771107
 H          2.6024009902       -0.1918994809        3.8899388307
 H          0.1795770603       -0.5933737913        4.1367989006
 H         -1.1554178096       -1.3418723913        2.2029445305
 C         -0.3586615895       -1.8250040909       -0.2966671296
 H         -0.7986844493       -2.8037474210       -0.0542315797
 C          0.3978162606       -1.9395342506       -1.6030625496
 C          1.1953146208       -3.1712954904       -1.9073171197
 C         -0.0795622993       -2.9014826605       -2.6474447397
 H         -0.0234366693       -2.6072455704       -3.6847462597
 H         -0.9456562792       -3.5020796707       -2.4104840298
 H          1.1963298809       -3.9594108605       -1.1693822398
 H          2.1343034507       -3.0630745902       -2.4297870997
 H          0.7844893504       -0.9844177305       -1.9423054295
 O         -3.1088151493       -2.6133459913       -0.2422069997
