  62
        -98.93169656
 C          0.0076905888        2.2196632901       -0.0687159400
 C          0.7627619789        1.4825624103       -1.0145555700
 C          2.2049417891        1.3482944013       -0.7216099204
 C          2.6922977092        1.8177468420        0.4397929493
 C          4.1146169694        1.6949563630        0.9083110989
 C          4.4054136805        0.2537044933        1.3706895092
 C          5.4460784706       -0.4739538163        0.5211559691
 H          6.4364900005       -0.0764911556        0.7525779387
 H          5.4369751714       -1.5251339062        0.8149163894
 C          5.2425431301       -0.3782685069       -0.9936598509
 H          5.6164546494        0.5808712333       -1.3552559113
 H          5.8689388205       -1.1472486266       -1.4503391208
 C          3.8012516801       -0.5606509479       -1.4865773804
 H          3.8304670301       -1.1377596881       -2.4131838802
 H          3.2161030807       -1.1374579581       -0.7719583200
 C          3.0575837792        0.7480037815       -1.8067730205
 H          2.3612357790        0.5546250009       -2.6286720602
 H          3.7739842786        1.4988700119       -2.1542729410
 H          4.7540223408        0.2669728238        2.4042906091
 H          3.4675545008       -0.3036761773        1.3560643397
 H          4.2437974292        2.3954981833        1.7336035586
 H          4.7876539890        1.9811742032        0.1025734686
 O          1.9094644091        2.4169579017        1.3755353294
 C          0.5726557489        2.6705840008        1.1273838097
 O         -0.0062302812        3.3001264507        2.0354586197
 O          0.2922909389        0.9744482097       -2.0638075197
 C         -1.4543763115        2.5935973892       -0.2538634797
 C         -2.3763629207        1.6270806488        0.4433946009
 C         -3.4433312507        2.1005369084        1.1986921811
 C         -4.3131253500        1.2210459780        1.8171652616
 C         -4.1359290692       -0.1436978919        1.6881958220
 C         -3.0633503391       -0.6285213515        0.9461482618
 C         -2.1853807299        0.2563382489        0.3345141513
 H         -1.3613670398       -0.1222868008       -0.2518324389
 N         -2.8494573783       -2.0075755214        0.8528338321
 S         -2.0071846182       -2.7441424812       -0.3788681279
 O         -2.1975992890       -2.0749132717       -1.6424232281
 O         -2.4459747373       -4.1242095215       -0.3316905774
 C         -0.2996191581       -2.7158379700        0.1304159715
 C          0.6067618121       -3.3425539397       -0.7029097486
 C          1.9265745922       -3.4587536087       -0.2998390790
 C          2.3189623023       -2.9459028281        0.9277934408
 C          1.4026985422       -2.3038690585        1.7449959009
 C          0.0784073320       -2.1902288094        1.3485265413
 H         -0.6491063881       -1.6991977597        1.9740114713
 H          1.7090770122       -1.8952197480        2.6952951007
 H          3.3441711225       -3.0468910574        1.2482966605
 H          2.6430022624       -3.9484688785       -0.9396324890
 H          0.2580092620       -3.7309646202       -1.6464605284
 H         -3.5669179878       -2.5980797217        1.2437311825
 H         -4.8148154686       -0.8348467922        2.1636545124
 H         -5.1382321801        1.6000497177        2.4005531018
 H         -3.5798133914        3.1662969283        1.3076500808
 H         -1.5673693920        3.5657961393        0.2548212801
 C         -1.8444095321        2.8101664485       -1.7094888596
 C         -2.5971651517        1.8072301178       -2.5248260691
 C         -3.2755983124        3.0662583175       -2.0806891092
 H         -3.4890357631        3.8255097372       -2.8179071094
 H         -4.0176129021        2.9847342273       -1.3008799490
 H         -2.3183330820        1.7004717877       -3.5622079791
 H         -2.8740074510        0.8707608278       -2.0648813887
 H         -1.0949433326        3.3889482788       -2.2404462800
