  62
        -98.94246714
 C         -1.0975748713       -1.4240942772       -0.0247311313
 C         -1.8297460419       -0.7843221113        1.0007254379
 C         -2.5438583182        0.4558350361        0.6388989518
 C         -2.4748297005        0.8945661147       -0.6317095252
 C         -3.1526560425        2.0955251559       -1.2345458401
 C         -4.6528015800        1.8647487688       -1.4871035881
 C         -5.3922623758        1.1304243541       -0.3713427851
 H         -6.4014571932        0.9107689083       -0.7294814862
 H         -4.9006545413        0.1741798501       -0.1827366458
 C         -5.5220201094        1.9002868583        0.9406259056
 H         -6.1114484476        1.2839109761        1.6242539275
 H         -6.0789623532        2.8227511937        0.7610954014
 C         -4.2083178801        2.2599047392        1.6364777720
 H         -3.7148309614        3.0879481129        1.1345354361
 H         -4.4565614426        2.6123394470        2.6421733254
 C         -3.2372843134        1.0964740016        1.8161380456
 H         -2.4316616156        1.4168471018        2.4904082339
 H         -3.7478404768        0.2819300860        2.3429658447
 H         -5.1260067607        2.8316754156       -1.6648024491
 H         -4.7518529958        1.2675053922       -2.3964868889
 H         -2.6659652081        2.2862186448       -2.1933530139
 H         -2.9901044082        2.9653728455       -0.6045857091
 O         -1.7697802997        0.2339325750       -1.5934268106
 C         -1.0394004906       -0.9105262466       -1.3188312297
 O         -0.4034558408       -1.3587069314       -2.2901141426
 O         -1.8921097373       -1.2310379974        2.1792703994
 C         -0.2930971844       -2.6673592407        0.3091517389
 C          1.1767214688       -2.3586501163        0.1566930003
 C          2.0401719532       -3.0922973530       -0.6455028031
 C          3.3742121507       -2.7358503484       -0.7445988173
 C          3.8707592422       -1.6462713624       -0.0539397327
 C          3.0171392182       -0.9108291690        0.7618116612
 C          1.6845998820       -1.2749203209        0.8649217218
 H          1.0304099947       -0.7025039497        1.5070735631
 N          3.4993579519        0.1865835201        1.4989713576
 S          2.6745167876        1.6400831894        1.4752037882
 O          3.6055749946        2.5878623174        2.0482177055
 O          1.4050632466        1.5110672799        2.1429787067
 C          2.4407636445        1.9952605780       -0.2544418797
 C          3.4777485752        2.5733703306       -0.9608732710
 C          3.3239499648        2.7852168051       -2.3209849888
 C          2.1474997968        2.4057322376       -2.9502639964
 C          1.1159837899        1.8274909956       -2.2271194908
 C          1.2623140018        1.6207370164       -0.8649270382
 H          0.4806405091        1.1748633196       -0.2692750479
 H          0.2042926449        1.5158776878       -2.7120579192
 H          2.0298226187        2.5608850073       -4.0110854295
 H          4.1207826407        3.2393275417       -2.8876270716
 H          4.3719936841        2.8589926135       -0.4309236978
 H          4.4901185611        0.3504612337        1.3878440079
 H          4.9101496304       -1.3673650626       -0.1364281832
 H          4.0344950861       -3.3116272864       -1.3749335812
 H          1.6688523103       -3.9395833004       -1.1973898680
 H         -0.4879901490       -2.8619565400        1.3744378008
 C         -0.7624079088       -3.8573261895       -0.4993642100
 C         -0.5454620938       -5.2469497919        0.0182658652
 C         -1.9241744279       -4.6605193662        0.0007525973
 H         -2.6378675332       -5.0367357496       -0.7167433437
 H         -2.3668282834       -4.3623176755        0.9402124848
 H         -0.3142612392       -6.0306694110       -0.6870595233
 H         -0.0524909649       -5.3524487847        0.9728817356
 H         -0.6953433434       -3.6907302443       -1.5681699610
