  62
        -98.94131120
 C         -2.4981083473       -1.3464764183        0.0106344373
 C         -3.1699077812       -0.6225588032        1.0307727031
 C         -3.9731948360        0.5246108589        0.5976448351
 C         -4.0491567500        0.8263336800       -0.7107564166
 C         -4.8434419976        1.9506699053       -1.3176867767
 C         -4.1203656555        3.3044076969       -1.2977469913
 C         -4.0201157239        3.9675741525        0.0765503111
 H         -3.6945407547        4.9965988272       -0.0880555823
 H         -5.0097521524        4.0072529616        0.5327673083
 C         -3.0347279143        3.2884757545        1.0383925292
 H         -2.3570698243        2.6419203261        0.4744181685
 H         -2.4139691132        4.0475962166        1.5200661839
 C         -3.6932502093        2.4703035943        2.1496817598
 H         -2.9022051010        2.0020821548        2.7411108946
 H         -4.2582170812        3.1349360497        2.8070589510
 C         -4.6313451133        1.3635204664        1.6507707025
 H         -5.5555802574        1.7970119180        1.2694086824
 H         -4.8699397646        0.7108805324        2.4940196468
 H         -3.1172809438        3.1725590764       -1.7112197062
 H         -4.6678824293        3.9763851516       -1.9627534216
 H         -5.8013711084        2.0411144272       -0.8048162304
 H         -5.0292120335        1.6746204198       -2.3579254093
 O         -3.4024245527        0.1035714433       -1.6613192706
 C         -2.5906355076       -0.9762972929       -1.3309524248
 O         -2.0358904119       -1.4960917512       -2.3186879177
 O         -3.1075500451       -0.9327970548        2.2499804134
 C         -1.6515162847       -2.5246010218        0.4632820759
 C         -0.2259653390       -2.0858369202        0.6806892153
 C          0.4084332650       -2.2707541381        1.9027644089
 C          1.7051218818       -1.8259590757        2.0970822164
 C          2.3934992064       -1.1908273668        1.0790345872
 C          1.7663275396       -0.9979190486       -0.1451635316
 C          0.4688779460       -1.4459913134       -0.3375007203
 H         -0.0161913948       -1.2900352030       -1.2905915491
 N          2.4578504248       -0.3444501200       -1.1871133434
 S          2.9258341368        1.2409685146       -0.8669842501
 O          2.0389030847        1.8683338427        0.0869835066
 O          3.0370157508        1.8801642566       -2.1601333199
 C          4.5519284110        1.0583123066       -0.1655536763
 C          4.8152743733        1.5370254276        1.1027764509
 C          6.0889473873        1.3782913098        1.6270186891
 C          7.0701175301        0.7471652377        0.8776341634
 C          6.7896953666        0.2743879988       -0.3959774093
 C          5.5193017213        0.4312397045       -0.9265923045
 H          5.2592463579        0.0833807925       -1.9123833037
 H          7.5552479473       -0.2158864699       -0.9755245618
 H          8.0593517255        0.6229188970        1.2890570583
 H          6.3088714906        1.7454422257        2.6166079699
 H          4.0181080381        2.0145014209        1.6499945106
 H          1.9546128197       -0.3753430916       -2.0636413479
 H          3.4023222893       -0.8403914634        1.2245107694
 H          2.1843962685       -1.9735793953        3.0527091855
 H         -0.1290460428       -2.7486740953        2.7086268958
 H         -2.0654959598       -2.7988535850        1.4464071920
 C         -1.7800497159       -3.7429174082       -0.4408964120
 C         -0.6556211154       -4.2963219309       -1.2595192240
 C         -1.1269080514       -5.0344230058       -0.0450495063
 H         -1.6758806725       -5.9545752559       -0.1745305082
 H         -0.4883683894       -5.0169952675        0.8253688144
 H         -0.8974831737       -4.6880838878       -2.2358336549
 H          0.3030934181       -3.8041536983       -1.2159978623
 H         -2.7690213661       -3.8137728930       -0.8823038191
