  62
        -98.94075132
 C          2.0060050583        1.3338105022        0.3683505996
 C          2.4930215886        0.6337169954       -0.7634339166
 C          3.7045313487       -0.1737575173       -0.5440486478
 C          4.2619004342       -0.2187716172        0.6787767367
 C          5.4618965054       -1.0408215085        1.0480132190
 C          5.0479463950       -2.4282549764        1.5581983188
 C          4.0440698034       -3.1445641705        0.6544499261
 H          3.8480066076       -4.1236076193        1.0973108813
 H          3.0995248601       -2.5951369772        0.6618865579
 C          4.5115210616       -3.3243394806       -0.7966897830
 H          5.5933590733       -3.1990666543       -0.8552977475
 H          4.2858067001       -4.3450185814       -1.1127047131
 C          3.8378343925       -2.3880004841       -1.8018490585
 H          4.0735024681       -2.7444631564       -2.8081540442
 H          2.7521212561       -2.4413425325       -1.6838257393
 C          4.2589416007       -0.9148203556       -1.7279447713
 H          5.3480613326       -0.8412956141       -1.7549823810
 H          3.8570886500       -0.4119454943       -2.6124884412
 H          5.9457508010       -3.0399470823        1.6632543496
 H          4.5973774575       -2.3138264979        2.5469366359
 H          6.1095173633       -1.1398279584        0.1791576509
 H          6.0058518164       -0.5206267121        1.8383514664
 O          3.7524368172        0.4470973538        1.7466766204
 C          2.6061684884        1.2160137188        1.6243300813
 O          2.2198227168        1.7303301188        2.6932830206
 O          1.9569155237        0.6704709389       -1.8999172422
 C          0.7515160416        2.1884494091        0.2970842947
 C         -0.3326819807        1.4437983994       -0.4434668078
 C         -0.9718486488        1.9285664368       -1.5759627160
 C         -1.9540034655        1.1791413806       -2.2010533834
 C         -2.3242329193       -0.0588759899       -1.7109106397
 C         -1.6988715186       -0.5482961990       -0.5705255656
 C         -0.7218464594        0.2068447644        0.0582349368
 H         -0.2313238955       -0.1781816465        0.9447581570
 N         -2.0774265960       -1.8004298859       -0.0562570613
 S         -3.7130181673       -2.1374136188        0.0509801668
 O         -3.8354437723       -3.0744750681        1.1460096447
 O         -4.2000228636       -2.5972934748       -1.2256019201
 C         -4.4853970654       -0.5833765586        0.4664188299
 C         -4.1009023684        0.0414215149        1.6363461741
 C         -4.6643007322        1.2648830243        1.9594328656
 C         -5.5987820906        1.8397461508        1.1113935784
 C         -5.9789909250        1.1970826489       -0.0562639464
 C         -5.4164920484       -0.0258290976       -0.3857058281
 H         -5.6801764544       -0.5581950133       -1.2849819416
 H         -6.7074615494        1.6454421818       -0.7123306737
 H         -6.0326016720        2.7941044501        1.3647619502
 H         -4.3693205834        1.7657441139        2.8676238569
 H         -3.3755734621       -0.4336451520        2.2777040119
 H         -1.5909157927       -2.0644825307        0.7872598211
 H         -3.0725633324       -0.6620476927       -2.1989748050
 H         -2.4329095322        1.5622373701       -3.0890853700
 H         -0.6819076467        2.8805183454       -1.9882999811
 H          0.4252394727        2.2957882076        1.3450295484
 C          0.9834776230        3.5982904306       -0.2256802816
 C          2.3132630244        4.2715572371       -0.0669662538
 C          1.8290819493        3.8810812565       -1.4294495690
 H          1.5145419805        4.6648576044       -2.1031339070
 H          2.2931081873        3.0420369161       -1.9224954485
 H          2.3292581016        5.3187153501        0.1957088685
 H          3.1155798647        3.6992377751        0.3762038777
 H          0.1105973994        4.2282459081       -0.0851579573
