  62
        -98.94552170
 C         -0.9124428784       -1.7879415000       -0.0882513761
 C         -2.2224640688       -1.6649295775        0.4365343255
 C         -3.0480754078       -0.5908736240       -0.1243625339
 C         -2.5310675445        0.2254282316       -1.0598032431
 C         -3.2406027444        1.3770778907       -1.7195627869
 C         -3.2262777267        2.6713939310       -0.8941113413
 C         -4.1517601736        2.6805991534        0.3228351336
 H         -4.2253949346        3.7164849256        0.6603337698
 H         -5.1516174975        2.3616981501        0.0255867012
 C         -3.6580450039        1.8190648453        1.4937561338
 H         -2.5907694809        1.6125215882        1.3735566279
 H         -3.7615930849        2.3801027428        2.4260044554
 C         -4.4136275341        0.5020206717        1.6741725977
 H         -5.4472767975        0.7108609417        1.9608223991
 H         -3.9429514866       -0.0522361450        2.4903317688
 C         -4.4257972210       -0.3997498778        0.4338129871
 H         -4.8020551266       -1.3820031108        0.7314593082
 H         -5.0894677586        0.0141669447       -0.3253570361
 H         -3.5225229817        3.4870312240       -1.5582533254
 H         -2.2049794703        2.8677474288       -0.5573126482
 H         -4.2719340448        1.0974781561       -1.9379971690
 H         -2.7232859046        1.5625161264       -2.6633436099
 O         -1.2704701460        0.0761883031       -1.5416521872
 C         -0.4199338585       -0.9072771223       -1.0536530733
 O          0.7162822530       -0.8858302667       -1.5614470138
 O         -2.6786611307       -2.4172051749        1.3403871020
 C          0.0003246626       -2.8281099801        0.5344191558
 C          1.3317879934       -2.2101100198        0.8890563942
 C          2.5487760724       -2.8653822336        0.7493135471
 C          3.7306063738       -2.2341584560        1.0985641394
 C          3.7313164388       -0.9295158550        1.5556962453
 C          2.5191839162       -0.2617129395        1.6886095095
 C          1.3366889315       -0.9168302528        1.3963243194
 H          0.4052623452       -0.3864557052        1.5281968297
 N          2.4592977876        1.0813554196        2.1079251903
 S          1.5240033817        2.1548333407        1.2331843473
 O          1.9734223163        3.4587061247        1.6830434488
 O          0.1211228687        1.8862888805        1.4322338704
 C          1.9461829916        1.9787747899       -0.4919437833
 C          3.2239209153        1.6232117956       -0.8718016567
 C          3.5229317069        1.5436832004       -2.2220269224
 C          2.5506360232        1.8304887098       -3.1660036512
 C          1.2766786773        2.2009851798       -2.7691495111
 C          0.9721498093        2.2760082247       -1.4209087270
 H         -0.0126468496        2.5417917999       -1.0715065694
 H          0.5151564224        2.4189306514       -3.5010124017
 H          2.7844125951        1.7597785173       -4.2167448956
 H          4.5131669442        1.2510673463       -2.5325969397
 H          3.9702729951        1.4015023585       -0.1271828246
 H          3.3531679681        1.4956719833        2.3310066999
 H          4.6561625682       -0.4313323391        1.8053384354
 H          4.6671441410       -2.7599164977        0.9922501174
 H          2.5779962183       -3.8680103481        0.3559988088
 H         -0.5044687024       -3.0982594827        1.4784981300
 C          0.1305961815       -4.1159376994       -0.2687499277
 C         -0.8250010692       -4.4474135965       -1.3747737884
 C          0.5990610291       -4.1095292924       -1.6922111590
 H          1.2520867398       -4.9038715879       -2.0226770835
 H          0.8100878401       -3.1491182187       -2.1353916344
 H         -1.1506115151       -5.4719752264       -1.4773542397
 H         -1.5881511835       -3.7210029006       -1.6146844735
 H          0.4482216748       -4.9530360853        0.3450195941
