  62
        -98.94564571
 C         -1.0919735605       -1.4540937084        0.7489294943
 C         -1.9926613247       -1.4490211052       -0.3429868979
 C         -3.0025352578       -0.3808262068       -0.3329016365
 C         -2.9953011830        0.5266760559        0.6603730972
 C         -3.9423418202        1.6864364512        0.7645280698
 C         -3.3848046409        2.9372467374        0.0716302592
 C         -2.8484899164        2.6824864542       -1.3364231845
 H         -2.5057505486        3.6409040429       -1.7313939875
 H         -1.9751333963        2.0289567203       -1.2730188433
 C         -3.8713934031        2.0736136986       -2.3054363592
 H         -4.8812502638        2.2252764237       -1.9221485315
 H         -3.8052571501        2.5985718446       -3.2607370362
 C         -3.6612711742        0.5875345974       -2.5996707280
 H         -4.2916870574        0.3166654439       -3.4509675083
 H         -2.6229459625        0.4131284122       -2.8933817197
 C         -4.0040340696       -0.3718339592       -1.4533234150
 H         -5.0047090107       -0.1518875477       -1.0755652388
 H         -4.0055985275       -1.3872457621       -1.8604044816
 H         -2.5674361552        3.3288791798        0.6783307758
 H         -4.1752611552        3.6888404216        0.0314194833
 H         -4.8954029516        1.4058472362        0.3197217017
 H         -4.0979651244        1.9070396021        1.8218509084
 O         -2.0925933965        0.5078868315        1.6749422116
 C         -1.1225176986       -0.4783539603        1.7454472571
 O         -0.3590230019       -0.3808537844        2.7272286837
 H          1.3159166351       -0.2875041554        0.2728781511
 C          1.5355438407       -1.0495965830       -0.4615880077
 C          0.9446288286       -2.3014020769       -0.3350930094
 C          1.2357291006       -3.2738870424       -1.2813942560
 C          2.0885155444       -2.9878983329       -2.3341257314
 C          2.6809889270       -1.7442860175       -2.4512244758
 C          2.4045069089       -0.7666393550       -1.5013303329
 N          2.9784126861        0.5118835741       -1.5827611109
 S          3.5280167845        1.2435029082       -0.1790223159
 O          4.5071804903        2.2068304650       -0.6387694339
 O          4.0033883659        0.2660397753        0.7721028513
 C          2.1319723007        2.1332566987        0.4724420151
 C          1.7889775096        1.9827135957        1.8006893315
 C          0.7472715147        2.7376722831        2.3150369927
 C          0.0752189562        3.6300925645        1.4957516488
 C          0.4252627948        3.7639337997        0.1600859210
 C          1.4648044291        3.0107469706       -0.3597852103
 H          1.7713226338        3.0926287756       -1.3893828704
 H         -0.1070621770        4.4544638177       -0.4742971714
 H         -0.7239123772        4.2278459709        1.9063329048
 H          0.4620625709        2.6137433873        3.3472029594
 H          2.3282752952        1.2712111910        2.4059132066
 H          3.6287742890        0.6368409348       -2.3452856589
 H          3.3506317784       -1.5265656665       -3.2695232147
 H          2.3002017287       -3.7483195310       -3.0705818128
 H          0.7881242815       -4.2506756391       -1.2027852495
 C          0.0027500977       -2.5047182597        0.8273074037
 H          0.5626374404       -2.2939535752        1.7503784229
 C         -0.5795845012       -3.8983336623        0.9167364232
 C          0.2282009898       -5.0068202466        1.5197411932
 C         -0.9465669556       -4.4457734551        2.2618753459
 H         -1.8388563177       -5.0474952495        2.3478734247
 H         -0.7579889286       -3.8197601730        3.1221728238
 H          0.1419811191       -5.9971872375        1.0989854748
 H          1.2174665414       -4.7652232636        1.8789119371
 H         -1.2346814270       -4.1341410856        0.0867418620
 O         -1.9657237043       -2.2936424160       -1.2756912520
