  62
        -98.94212385
 C         -1.2446375457       -0.9177283355        0.4595101036
 C         -1.7878864962       -0.6167792665       -0.8137322438
 C         -2.6394015156        0.5799544801       -0.8730024200
 C         -2.8305519659        1.3249981012        0.2308241907
 C         -3.6423590110        2.5890977532        0.3177327977
 C         -5.1459879528        2.3529984164        0.5152402038
 C         -5.8893631462        1.8282305523       -0.7136705110
 H         -6.9572634775        1.9168401425       -0.5042539758
 H         -5.6722678085        2.4682412315       -1.5695822482
 C         -5.5756594850        0.3677101475       -1.0674620389
 H         -5.1123798386       -0.1240866016       -0.2090274154
 H         -6.5065816809       -0.1641757705       -1.2763906386
 C         -4.6704466306        0.1904303049       -2.2865780985
 H         -4.4839895324       -0.8779022805       -2.4229067694
 H         -5.1810306429        0.5590359291       -3.1791765059
 C         -3.3132662539        0.8970627784       -2.1738263221
 H         -2.6698244256        0.5333610882       -2.9792443404
 H         -3.4397239421        1.9738532993       -2.2871752656
 H         -5.2846224086        1.6597280760        1.3480120342
 H         -5.5909866692        3.3088556254        0.8012238528
 H         -3.2664094263        3.1414099080        1.1815493788
 H         -3.4823195758        3.1916731096       -0.5769169360
 O         -2.2718118625        1.0135141040        1.4299156539
 C         -1.4920775042       -0.1231099961        1.5797463047
 O         -1.0779056069       -0.3114627870        2.7397461815
 O         -1.5658628750       -1.2932188896       -1.8517261750
 C         -0.3537262666       -2.1250183273        0.6596092748
 C          0.9558739739       -2.0206783898       -0.0890942311
 C          1.8180214172       -3.1115328189       -0.1624880324
 C          3.0452669919       -3.0067021333       -0.7918775036
 C          3.4410323872       -1.8152172889       -1.3758786843
 C          2.5819899899       -0.7295051788       -1.3242005364
 C          1.3612243237       -0.8303511599       -0.6721174545
 H          0.7154777746        0.0370586515       -0.6233675111
 N          2.9883453567        0.5030437907       -1.9003219988
 S          3.9751661919        1.4006141205       -0.8849251663
 O          4.1282726198        2.6940119072       -1.5111235966
 O          5.1821309486        0.6515138148       -0.6501741759
 C          3.0339374107        1.5483728879        0.6224622768
 C          3.1415778506        0.5592256589        1.5794831212
 C          2.3224402557        0.6167431688        2.6952451949
 C          1.4091135497        1.6504444647        2.8315919869
 C          1.3120598820        2.6347683159        1.8600370298
 C          2.1266588343        2.5822185451        0.7404248096
 H          2.0804816341        3.3279381663       -0.0378834428
 H          0.5959427345        3.4341357687        1.9678269595
 H          0.7565320494        1.6746475769        3.6896275437
 H          2.3825984439       -0.1512962408        3.4491392327
 H          3.8606611985       -0.2310705476        1.4352005972
 H          2.2038762983        1.0792247930       -2.1741749984
 H          4.3984548737       -1.7066960487       -1.8581818317
 H          3.7024201462       -3.8618841047       -0.8296243481
 H          1.5231685903       -4.0476287214        0.2842395590
 H         -0.1166178288       -2.1471201971        1.7339564448
 C         -1.0941354962       -3.4028849198        0.3020508052
 C         -0.9439449926       -4.6370413765        1.1381283961
 C         -2.2213870046       -3.8554926852        1.1796090894
 H         -3.1031908945       -4.2712018510        0.7157299279
 H         -2.4290370347       -3.2648800119        2.0605915309
 H         -0.9467469461       -5.5968404414        0.6438715765
 H         -0.3018863109       -4.5858553968        2.0048506513
 H         -1.2190898294       -3.5241464602       -0.7675011123
