  62
        -98.93885419
 C         -1.4074584101       -1.3417864902        0.1356769098
 C         -2.4762132200       -0.9077995105        0.9574870801
 C         -3.0839610202        0.3857996395        0.6160855605
 C         -2.5695771906        1.1004351397       -0.4010432895
 C         -3.1150400809        2.4024922498       -0.9150410991
 C         -4.3765905210        2.1499871697       -1.7654698189
 C         -5.6622986110        2.7262813294       -1.1724228685
 H         -5.6687396611        3.8077609195       -1.3230189183
 H         -6.4987676310        2.3089703994       -1.7369097584
 C         -5.8854967306        2.4600552191        0.3192795815
 H         -6.9320101706        2.6894840790        0.5307931318
 H         -5.2885945205        3.1566893391        0.9100430415
 C         -5.5877506603        1.0331156391        0.7975226412
 H         -6.3461102701        0.7562338489        1.5326713313
 H         -5.6713784804        0.3252125592       -0.0273601689
 C         -4.2191145201        0.8585365292        1.4820540908
 H         -3.9335487701        1.7926801991        1.9749931309
 H         -4.3122014498        0.0947438190        2.2602712507
 H         -4.4879664209        1.0719876597       -1.8996203591
 H         -4.2364406513        2.5777778899       -2.7592294788
 H         -3.3395162208        3.0595079896       -0.0774339390
 H         -2.3324691911        2.8653113900       -1.5169089592
 O         -1.5189929907        0.6718460100       -1.1430223998
 C         -0.8944007204       -0.5376873999       -0.8819709802
 O          0.0777594594       -0.7722102197       -1.6249511004
 H          0.5368127002       -0.7183877302        1.7912265195
 C          1.2362409302       -1.3685028801        1.2847199892
 C          0.7657690401       -2.4480876100        0.5459701991
 C          1.6901973801       -3.2630418797       -0.0939535112
 C          3.0452209401       -2.9900540796       -0.0085369015
 C          3.5040098101       -1.8885066796        0.6893819286
 C          2.5855905401       -1.0669519099        1.3328673890
 N          2.9877504701        0.0970547701        2.0255469891
 S          2.5195869898        1.5530935901        1.3333415795
 O          3.0588875098        2.5769511900        2.2038117195
 O          1.0929284097        1.5681074900        1.1386692898
 C          3.3935150794        1.5865618405       -0.2219150907
 C          2.9067983993        0.8613628407       -1.2909906908
 C          3.6502721390        0.8269792610       -2.4618469309
 C          4.8545604689        1.5082954112       -2.5431557811
 C          5.3272886590        2.2331292810       -1.4590867111
 C          4.5943476893        2.2685667707       -0.2844702809
 H          4.9192096694        2.8182303506        0.5843309591
 H          6.2626469190        2.7652573312       -1.5243061512
 H          5.4266903887        1.4740767714       -3.4569200812
 H          3.2756924289        0.2614356311       -3.2999381110
 H          1.9635331194        0.3422986705       -1.2115605906
 H          3.9816665102        0.1326427302        2.2108428189
 H          4.5581119801       -1.6585009095        0.7318041184
 H          3.7512104001       -3.6326002694       -0.5119766618
 H          1.3512595601       -4.1026170597       -0.6781441513
 C         -0.7278599098       -2.6529805602        0.4899693494
 H         -1.0759246896       -2.8687405904        1.5148371994
 C         -1.1500404399       -3.8360543901       -0.3687551507
 C         -2.4511736400       -3.8279056001       -1.1126808304
 C         -1.1578040502       -3.7704515998       -1.8657464707
 H         -0.8501609802       -4.6455674897       -2.4191763509
 H         -0.8692014704       -2.8372037797       -2.3226330206
 H         -3.0525957101       -2.9317321902       -1.0594153401
 H         -3.0287555399       -4.7396720302       -1.1439850205
 H         -0.8633707496       -4.7839857401        0.0760227390
 O         -2.8978274597       -1.5737878107        1.9429042901
