  62
        -98.93691591
 C         -2.0059705158       -0.8150324910        0.5863087605
 C         -2.1196825322       -0.0786839035       -0.6160304290
 C         -2.2712281860        1.3789631758       -0.4758579074
 C         -2.2594252961        1.9291121541        0.7499685632
 C         -2.3302204221        3.3886313589        1.1252758228
 C         -3.3311697229        4.2710036211        0.3667645034
 C         -4.6230485042        3.5624497086       -0.0660656604
 H         -4.6956049812        2.5889399605        0.4217760365
 H         -5.4789553956        4.1561006770        0.2601321954
 C         -4.7260574108        3.3826567967       -1.5824702514
 H         -4.3985993542        4.3048991603       -2.0670114207
 H         -5.7746685440        3.2277934096       -1.8471306730
 C         -3.9358723450        2.2080855234       -2.1580382793
 H         -4.3993200633        1.2653556471       -1.8552596687
 H         -3.9987633593        2.2612613922       -3.2474543165
 C         -2.4536835468        2.1459315724       -1.7539068463
 H         -1.9170336514        1.5790928396       -2.5197271032
 H         -2.0169933287        3.1397586102       -1.6908986548
 H         -2.8475518629        4.6963706575       -0.5113555740
 H         -3.5763417004        5.1053584585        1.0261058557
 H         -2.5697891591        3.3955578536        2.1916120896
 H         -1.3248678895        3.8079024640        1.0198192554
 O         -2.1366626468        1.1807269931        1.8844179363
 C         -1.9945237833       -0.1944512316        1.8322183393
 O         -1.8756726165       -0.7438577116        2.9489870876
 H          0.4730063445       -0.8879013080        0.5208902420
 C          0.5598781816       -1.7620976720       -0.1083337837
 C         -0.5202257351       -2.6265901965       -0.2312885713
 C         -0.3780189558       -3.7545021976       -1.0294994518
 C          0.8134959553       -3.9954901875       -1.6922961791
 C          1.8785768647       -3.1215182593       -1.5822534148
 C          1.7438844139       -1.9855158097       -0.7895939125
 N          2.7855170228       -1.0471480204       -0.7090975213
 S          2.8123450721        0.1313710060        0.4876842699
 O          2.7972417970       -0.4750059884        1.8021138509
 O          1.7846121842        1.1055252009        0.2151983127
 C          4.4142516422        0.8445746711        0.1650482192
 C          5.4964530523        0.4757230094        0.9412199241
 C          6.7400744073        1.0198221701        0.6599412777
 C          6.8800901963        1.9160685440       -0.3888549232
 C          5.7843802562        2.2776969237       -1.1588485454
 C          4.5382853975        1.7384705136       -0.8819492392
 H          3.6560208819        1.9954268361       -1.4450529897
 H          5.8959379698        2.9769990659       -1.9716664375
 H          7.8485735739        2.3380599098       -0.6058878674
 H          7.5925992664        0.7432670260        1.2589735626
 H          5.3368274881       -0.2179155046        1.7510318566
 H          3.7001171162       -1.4310858735       -0.8988752558
 H          2.8016403910       -3.3056029230       -2.1096436092
 H          0.9120229625       -4.8769027327       -2.3076034608
 H         -1.2004877543       -4.4433004234       -1.1335056670
 C         -1.7849480162       -2.3143329369        0.5350932180
 H         -1.6363722459       -2.6354861633        1.5779114466
 C         -3.0079681057       -3.0137015756       -0.0237636912
 C         -3.3948172030       -4.3767171937        0.4638421174
 C         -4.2078232999       -3.1814740528        0.8578235855
 H         -5.1886946527       -3.0554053892        0.4247878233
 H         -4.1282188135       -2.8179782654        1.8725261354
 H         -3.8226826197       -5.0739608657       -0.2406709653
 H         -2.7728048778       -4.8336920277        1.2188306681
 H         -3.1812670849       -2.7709600511       -1.0657953041
 O         -2.0846492225       -0.6102991949       -1.7567723986
