  62
        -98.94364797
 C          1.6976892731       -0.3585095328       -0.6543018131
 C          2.9393834569       -0.2441546949       -1.3233137861
 C          4.1289092630       -0.5880154574       -0.5331552078
 C          3.9769338044       -0.9893569788        0.7423748372
 C          5.1045282509       -1.3210189603        1.6757093673
 C          5.5484027344       -0.0859429957        2.4718486384
 C          5.7922756561        1.1507129945        1.6069937830
 H          4.8437112591        1.4737772660        1.1718939969
 H          6.1297754510        1.9503042615        2.2700358682
 C          6.8210122914        0.9481929963        0.4857010569
 H          7.4943946450        1.8078152104        0.4687952892
 H          7.4276220843        0.0661452564        0.6940491569
 C          6.2178134273        0.8281759198       -0.9151058959
 H          5.5370394000        1.6644592712       -1.0936566977
 H          7.0299411919        0.9076571653       -1.6427800792
 C          5.4664644894       -0.4764275154       -1.2094641990
 H          5.2621421913       -0.5062070188       -2.2838141401
 H          6.0989198834       -1.3298951921       -0.9568934390
 H          4.7706353039        0.1541748993        3.2004034097
 H          6.4601154197       -0.3359024398        3.0174721287
 H          4.7596598869       -2.0865857076        2.3726286767
 H          5.9404461420       -1.7160773965        1.1017394564
 O          2.7671085132       -1.0948871712        1.3479882965
 C          1.5974831333       -0.7731288561        0.6739752148
 O          0.5621983434       -0.9010006802        1.3527180394
 O          3.0477722854        0.1304822400       -2.5224371709
 C          0.4242588603       -0.0116726452       -1.4048769608
 C         -0.2871860611        1.1188477156       -0.7046351518
 C          0.4133302036        2.2954787011       -0.4482244784
 C         -0.1914716665        3.3473229794        0.2106327061
 C         -1.5084801951        3.2507435359        0.6259242541
 C         -2.2180261583        2.0835508527        0.3722280557
 C         -1.6073041962        1.0300106824       -0.2957020172
 H         -2.1747120919        0.1370149046       -0.4909373614
 N         -3.5370165983        1.9432598069        0.8167200102
 S         -4.6453865662        0.9822111127        0.0265148640
 O         -4.5333095654        1.1031495902       -1.4086780976
 O         -5.9195633353        1.3719258678        0.5925877748
 C         -4.2640903968       -0.6806361083        0.5345877734
 C         -3.9020929680       -0.9180023846        1.8451395036
 C         -3.6237847251       -2.2176406496        2.2362473331
 C         -3.7159345060       -3.2521330201        1.3179465540
 C         -4.0885734301       -2.9983661977        0.0070753480
 C         -4.3679543970       -1.7007449658       -0.3902290826
 H         -4.6525121692       -1.4547572459       -1.4012829170
 H         -4.1587587879       -3.8048212149       -0.7056017865
 H         -3.4930838969       -4.2619103285        1.6250837899
 H         -3.3286457474       -2.4186105204        3.2534779765
 H         -3.8304835136       -0.0914370034        2.5321533708
 H         -3.9516800000        2.7602635424        1.2381506345
 H         -1.9808484764        4.0694660200        1.1470039629
 H          0.3644108361        4.2527118127        0.4034461345
 H          1.4429801696        2.3702057428       -0.7711312712
 H          0.7541309360        0.3495668110       -2.3903387525
 C         -0.4301997890       -1.2460647542       -1.5997629536
 C         -1.3979206388       -1.3167136323       -2.7415676564
 C         -0.1503280626       -2.1462223298       -2.7642249353
 H         -0.2373727704       -3.2129156406       -2.6233512430
 H          0.6458909033       -1.8577231329       -3.4348709382
 H         -2.3429501771       -1.8137087722       -2.5849321892
 H         -1.4578747366       -0.4630143164       -3.3997688914
 H         -0.7102700548       -1.7138008520       -0.6621535759
