  62
        -98.94285982
 C          2.0895959901        1.5127744693        0.1154112294
 C          1.7105003189        0.3726191352       -0.6374578956
 C          2.7571942912       -0.6481276695       -0.8196328343
 C          3.9797811576       -0.4506903875       -0.2966715835
 C          5.1155850235       -1.4288453865       -0.3681921716
 C          5.1174673314       -2.3643496187        0.8489784541
 C          3.7574584930       -2.9978680459        1.1427199269
 H          3.8874446679       -3.6615285233        2.0003029054
 H          3.0571327884       -2.2158891758        1.4454429348
 C          3.1591428436       -3.7873257813       -0.0297686440
 H          3.9410978202       -4.0273372738       -0.7512674080
 H          2.7683878416       -4.7334969942        0.3501806784
 C          2.0047824051       -3.0835857682       -0.7458737930
 H          1.2625668004       -2.7574183758       -0.0131009045
 H          1.5242789505       -3.8123133670       -1.4040384401
 C          2.3911197640       -1.8747238504       -1.6071708572
 H          3.1979718518       -2.1496230461       -2.2897322481
 H          1.5174136442       -1.5952069809       -2.2030538844
 H          5.8582472950       -3.1482418017        0.6805468347
 H          5.4248421642       -1.7900734771        1.7261828504
 H          5.0341128258       -2.0084381360       -1.2856422513
 H          6.0519005426       -0.8682690929       -0.3859414098
 O          4.3081265135        0.6589169244        0.4132985228
 C          3.3711091229        1.6482918854        0.6577467639
 O          3.7939446802        2.5872430297        1.3618277711
 O          0.5725948631        0.2001609545       -1.1427074254
 C          1.1119902387        2.6332650831        0.4321879747
 C         -0.1950570817        2.0469474785        0.9027350032
 C         -0.2534572037        1.4496390737        2.1585319195
 C         -1.4244999354        0.8735303412        2.6135076326
 C         -2.5595473599        0.8718039934        1.8217416259
 C         -2.5046837848        1.4483717483        0.5598784438
 C         -1.3316030858        2.0410608764        0.1112625979
 H         -1.2977483608        2.4692451069       -0.8781483561
 N         -3.6426229092        1.4328014353       -0.2624842199
 S         -4.5920897102        0.0574994685       -0.2957544520
 O         -5.2527809295        0.0919790720       -1.5822853007
 O         -5.4655729837        0.0499919211        0.8529199518
 C         -3.4767877896       -1.3323584587       -0.2104019117
 C         -3.6085381497       -2.2497140250        0.8124157915
 C         -2.7407944820       -3.3285207579        0.8613634396
 C         -1.7625421444       -3.4710463692       -0.1103726629
 C         -1.6464778891       -2.5429108593       -1.1333057646
 C         -2.5089703817       -1.4610798348       -1.1859570834
 H         -2.4300108656       -0.7233939156       -1.9675534568
 H         -0.8810772151       -2.6470832024       -1.8845989424
 H         -1.0853854479       -4.3100002794       -0.0713377794
 H         -2.8289014264       -4.0523006716        1.6557488083
 H         -4.3845905147       -2.1012071341        1.5459130382
 H         -3.4780437490        1.7848320126       -1.1939800224
 H         -3.4833588252        0.4346145802        2.1639212973
 H         -1.4560048571        0.4192519509        3.5922461295
 H          0.6370250804        1.4387319027        2.7726823789
 H          1.5646621689        3.1726712889        1.2798502464
 C          0.9411221167        3.6529713926       -0.6842798276
 C          2.1117944779        4.0648754079       -1.5247021621
 C          0.9870352263        3.2875507655       -2.1363481710
 H          0.3206537937        3.8024531646       -2.8136442951
 H          1.1548454737        2.2534012928       -2.3916034506
 H          2.2196976640        5.1078899940       -1.7816308638
 H          3.0506513743        3.5590061982       -1.3518043562
 H          0.2502913288        4.4425531730       -0.4031343125
