  62
        -98.92919177
 C         -2.1195258769       -0.7701429847       -0.4433442899
 C         -1.1035199150       -1.4995081486       -1.1087760652
 C         -0.3421450306       -2.4823604679       -0.3181812037
 C         -0.6060968016       -2.5911822864        0.9962009158
 C          0.0644931722       -3.5047061505        1.9853614947
 C          1.4301984062       -2.9671675865        2.4568261470
 C          2.2428941421       -2.2336746321        1.3904109830
 H          3.0801603451       -1.7385390399        1.8917686418
 H          1.6264291584       -1.4382541334        0.9666997226
 C          2.8187515642       -3.1123467359        0.2811598707
 H          3.5839920023       -3.7613806678        0.7142809470
 H          3.3098207758       -2.4522967388       -0.4381038402
 C          1.8237382502       -4.0015285895       -0.4632058638
 H          1.4631936822       -4.7885724059        0.1936844148
 H          2.3725447239       -4.4958297251       -1.2704332346
 C          0.6532782346       -3.2786628951       -1.1265720228
 H          0.0719857873       -4.0180784078       -1.6921685192
 H          1.0446826118       -2.5795211056       -1.8728349389
 H          2.0133264930       -3.7961356838        2.8615797289
 H          1.2469269976       -2.2536690007        3.2637678296
 H          0.1576017251       -4.4978735133        1.5537891511
 H         -0.5974854091       -3.5771441295        2.8509018914
 O         -1.5321441099       -1.8144543380        1.6178005749
 C         -2.2718944193       -0.8584245812        0.9435220723
 O         -3.0211727214       -0.1948800938        1.6826235036
 O         -0.8268405050       -1.3275477874       -2.3294220456
 C         -2.8389941929        0.3042979503       -1.2507568574
 C         -2.4060698563        1.6118586604       -0.6428186821
 C         -3.2022760852        2.4092021251        0.1673209130
 C         -2.6484820001        3.4797568365        0.8497934276
 C         -1.2942440050        3.7560715397        0.7635219680
 C         -0.5015147772        2.9823055451       -0.0705877266
 C         -1.0659025434        1.9458535964       -0.7892799555
 H         -0.4418144797        1.3315359192       -1.4262214236
 N          0.9115441631        3.1852211473       -0.0972710178
 S          1.7230223954        2.0087990386        0.8261018837
 O          0.7901018641        1.0028918571        1.2752294627
 O          2.4421513648        2.7075487263        1.8675521787
 C          2.9044018727        1.3046077318       -0.3149151050
 C          4.2092629657        1.7587792442       -0.3060243407
 C          5.1136320270        1.2207109183       -1.2078766872
 C          4.6999479811        0.2456935200       -2.1029385151
 C          3.3864269526       -0.1990541381       -2.1013503498
 C          2.4779313272        0.3333975236       -1.2000335650
 H          1.4521489520       -0.0024670239       -1.1682368957
 H          3.0586696569       -0.9550649129       -2.7977727959
 H          5.4029689387       -0.1736290082       -2.8050983554
 H          6.1357904959        1.5629560501       -1.2100738414
 H          4.4832148447        2.5142272022        0.4119006076
 H          1.2744512171        3.1486607124       -1.0411364992
 H         -0.8416487359        4.5455673456        1.3419394970
 H         -3.2736678211        4.0825079391        1.4912778041
 H         -4.2433085095        2.1615304856        0.2988794568
 H         -2.3862590378        0.2276880324       -2.2531412621
 C         -4.3345377791        0.1516429623       -1.4514608143
 C         -4.9472306777       -1.2090428857       -1.5991800114
 C         -5.2886250618       -0.3573059004       -0.4152976510
 H         -6.2719392214        0.0892117285       -0.3772207384
 H         -4.8948456405       -0.6268663052        0.5504529069
 H         -5.6956533797       -1.3621649240       -2.3619845429
 H         -4.3007058054       -2.0600296956       -1.4387571540
 H         -4.7178846736        0.9242315238       -2.1121354945
