  62
        -98.94052697
 C         -1.6310328114       -1.0266231796        0.8741852795
 C         -2.8682398612       -1.2420650297        0.2176337593
 C         -3.8733016111       -0.1778180795        0.3863800184
 C         -3.5718194011        0.9184680109        1.1038375279
 C         -4.4790819110        2.0987783111        1.2940736570
 C         -4.2559955205        3.1561770705        0.2035598165
 C         -4.2511551601        2.5890406098       -1.2159702832
 H         -4.1153428098        3.4285883894       -1.9010693136
 H         -3.3857962302        1.9330807295       -1.3354803526
 C         -5.5246709501        1.8209111898       -1.5960040732
 H         -6.3325374703        2.0797765403       -0.9104947436
 H         -5.8364088698        2.1314976093       -2.5954936735
 C         -5.3604201004        0.3005318097       -1.6333163423
 H         -4.4947973702        0.0402873592       -2.2474736619
 H         -6.2438263203       -0.1253778004       -2.1165659624
 C         -5.2087363509       -0.3877199396       -0.2709563519
 H         -6.0175097311       -0.0739312691        0.3922151177
 H         -5.2962270511       -1.4660155197       -0.4337831414
 H         -5.0379628604        3.9125479707        0.2924223858
 H         -3.2933730804        3.6403981304        0.3821600465
 H         -5.5133694910        1.7603796713        1.2799070368
 H         -4.2658705012        2.5427352116        2.2680152168
 O         -2.3675493813        1.0978215710        1.7054451482
 C         -1.3768547614        0.1367625108        1.6051642190
 O         -0.3227693515        0.4254475709        2.2070820492
 H          2.1999610885       -1.5874853202        0.8728070410
 C          1.7890709988       -1.4801304907       -0.1195529592
 C          0.4328825189       -1.6694549006       -0.3357424695
 C         -0.0699360107       -1.5176071412       -1.6249397897
 C          0.7732608097       -1.1869131819       -2.6691473096
 C          2.1247249196       -0.9838152120       -2.4469575093
 C          2.6357855192       -1.1281638314       -1.1629096391
 N          4.0048937992       -0.9399828915       -0.9097114388
 S          4.4985840089        0.0135606091        0.3760560509
 O          5.9116345191        0.2183118587        0.1450687112
 O          4.1432690685       -0.6167688502        1.6204791311
 C          3.6267763393        1.5532081791        0.1542474098
 C          2.3655153991        1.7236342096        0.6877006593
 C          1.6903603194        2.9080158496        0.4338947085
 C          2.2794431498        3.8946966691       -0.3403110019
 C          3.5498820100        3.7086763286       -0.8655462614
 C          4.2282846297        2.5265103686       -0.6217575106
 H          5.2201042398        2.3434393582       -1.0026595002
 H          4.0095587603        4.4790739082       -1.4634570517
 H          1.7467517301        4.8129626391       -0.5316613225
 H          0.7036947993        3.0377976700        0.8508403981
 H          1.9122660088        0.9551923400        1.2939594896
 H          4.5485611195       -0.7203607720       -1.7324210287
 H          2.7803970999       -0.7179597826       -3.2621132593
 H          0.3739936300       -1.0775465624       -3.6661390898
 H         -1.1253158407       -1.6687496711       -1.7958230000
 C         -0.4733456115       -2.0105264698        0.8191127504
 H          0.0999096082       -1.8375543494        1.7447966805
 C         -0.9101298718       -3.4685294797        0.8309788410
 C         -0.7334846216       -4.3976587204       -0.3283827584
 C          0.1298314380       -4.5486709599        0.8855601319
 H         -0.0318059723       -5.3919183195        1.5399586823
 H          1.1633268981       -4.2438526001        0.8062812521
 H         -0.2811042413       -4.0144643009       -1.2292240185
 H         -1.5121521917       -5.1231292003       -0.5074892383
 H         -1.7982037820       -3.6205884793        1.4353530009
 O         -3.1409917112       -2.2548662100       -0.4747157503
