  62
        -98.94239112
 C         -1.5912423524       -1.3386135886        0.2580771492
 C         -2.0662314637       -0.8104249589       -0.9674921155
 C         -2.8880603764        0.4050111806       -0.8597327012
 C         -3.1745253557        0.9065059924        0.3553659319
 C         -3.9195779118        2.1862721901        0.5994859642
 C         -2.9501227834        3.3724014181        0.7056167090
 C         -1.9126283868        3.4254434307       -0.4163931311
 H         -1.2934016315        4.3093464535       -0.2473943565
 H         -1.2559898224        2.5548659917       -0.3383996692
 C         -2.5124935423        3.4874948475       -1.8287014987
 H         -3.5549293169        3.8033184943       -1.7731345426
 H         -1.9751050649        4.2443814937       -2.4043349036
 C         -2.4243592553        2.1814748474       -2.6210687784
 H         -1.3933366165        1.8162611726       -2.6165692607
 H         -2.6863326064        2.3973145715       -3.6603380079
 C         -3.3380562681        1.0459542955       -2.1419723144
 H         -4.3643775401        1.4080408356       -2.0587288794
 H         -3.3110978066        0.2567503162       -2.8991710166
 H         -3.5307914466        4.2964314582        0.7085008304
 H         -2.4215358271        3.3005781444        1.6583958122
 H         -4.6270066238        2.3515775423       -0.2104844974
 H         -4.4701024565        2.0930501850        1.5368836758
 O         -2.7608077720        0.3288488904        1.5110573585
 C         -1.9446589577       -0.7916951864        1.4920816006
 O         -1.6083106370       -1.2020616929        2.6193504235
 H          0.3467510550       -0.1078295419       -0.5316006046
 C          1.0343876397       -0.9215113121       -0.7245853473
 C          0.6725068794       -2.2190846519       -0.3962938573
 C          1.5893217207       -3.2354236839       -0.6509786364
 C          2.8248417583       -2.9564626662       -1.2073100545
 C          3.1761740128       -1.6581447955       -1.5361303011
 C          2.2635862075       -0.6420252401       -1.3042329408
 N          2.6229034094        0.6961276034       -1.6168938071
 S          3.5039243772        1.4338519869       -0.3955538652
 O          3.6327527716        2.8224950984       -0.7728488395
 O          4.7277759785        0.6973397148       -0.2158410564
 C          2.4686506957        1.2783531036        1.0478057200
 C          2.5570820884        0.1334583362        1.8144331204
 C          1.6720531662       -0.0366023442        2.8666000131
 C          0.7147947595        0.9308835851        3.1295128470
 C          0.6391187713        2.0741629810        2.3490876779
 C          1.5182035460        2.2491414487        1.2925250331
 H          1.4893231629        3.1234894163        0.6611831162
 H         -0.1081700512        2.8240155184        2.5556157542
 H          0.0131412942        0.7790640595        3.9342420076
 H          1.7148235425       -0.9287543642        3.4700056430
 H          3.3131827153       -0.5974719206        1.5764826206
 H          1.8205467460        1.2763773893       -1.8213959916
 H          4.1381657103       -1.4161739714       -1.9568800039
 H          3.5235755740       -3.7586981003       -1.3881555973
 H          1.3304032273       -4.2527240856       -0.4043718651
 C         -0.6487469864       -2.5225585279        0.2749127249
 H         -0.4405202664       -2.7254695224        1.3362503014
 C         -1.3109046458       -3.7495903883       -0.3283268993
 C         -1.1120096086       -5.1048355327        0.2789287223
 C         -2.4297973409       -4.4067192790        0.4213499519
 H         -3.2786298405       -4.7749152962       -0.1348325531
 H         -2.6864441877       -3.9932137857        1.3862445539
 H         -1.0540651573       -5.9595306506       -0.3780942637
 H         -0.4907320665       -5.1785273336        1.1590882019
 H         -1.4071850231       -3.6821446992       -1.4055106107
 O         -1.8005304421       -1.3045080466       -2.0943566343
