  62
        -98.93192878
 C          2.4143683587        0.4998985561        0.4319073346
 C          3.2025511856        0.4204013994       -0.7408097700
 C          4.3094172159       -0.5583688390       -0.7164295385
 C          4.4846485679       -1.3315590333        0.3678523133
 C          5.5669082217       -2.3479765260        0.6057618549
 C          6.7490605139       -1.7163358194        1.3602450392
 C          7.7977687638       -1.0488678043        0.4712815547
 H          8.5003512431       -0.5322567284        1.1292752245
 H          8.3568424242       -1.8192431085       -0.0639855009
 C          7.2498535195       -0.0460889158       -0.5475769944
 H          6.4877403600        0.5776415850       -0.0767420739
 H          8.0691097082        0.6127913199       -0.8421627525
 C          6.6747520512       -0.7158421448       -1.8045131654
 H          6.9773741214       -1.7627439490       -1.8192474249
 H          7.1136405735       -0.2547824451       -2.6917742519
 C          5.1501322258       -0.6164130217       -1.9629771211
 H          4.8005841397       -1.4503765033       -2.5806162599
 H          4.8999397097        0.2995390360       -2.5075820744
 H          7.2466178877       -2.4923772411        1.9454663673
 H          6.3440722849       -0.9855161230        2.0651157961
 H          5.1292857880       -3.1263131074        1.2343241248
 H          5.8903665936       -2.7936317588       -0.3301209899
 O          3.6831519121       -1.2431847259        1.4657725856
 C          2.6479825428       -0.3327881134        1.5292721883
 O          2.0128263532       -0.3513335539        2.6037273540
 O          3.0160263399        1.1237696061       -1.7661018981
 C          1.2559631420        1.4707481191        0.5935313752
 C         -0.0215193079        0.8659524415        0.0706666828
 C         -0.1103119282        0.3713381666       -1.2270121590
 C         -1.2945502538       -0.1739103510       -1.6879895498
 C         -2.4080295468       -0.2442758797       -0.8686123835
 C         -2.3289530942        0.2411972078        0.4292683083
 C         -1.1398847011        0.7946032109        0.8878090803
 H         -1.0789774698        1.1619174716        1.9038553646
 N         -3.4503437711        0.1548112672        1.2707465051
 S         -4.9234942631        0.7244020113        0.7010403447
 O         -4.7381627875        1.7798534526       -0.2673817526
 O         -5.6795065550        1.0635135059        1.8865915456
 C         -5.6660389432       -0.6957001761       -0.0739539390
 C         -6.0769310925       -0.6242592471       -1.3905527972
 C         -6.6650081000       -1.7377182581       -1.9703070315
 C         -6.8317212981       -2.8959095530       -1.2266942102
 C         -6.4156685733       -2.9504610553        0.0954036453
 C         -5.8280953611       -1.8406825270        0.6812315624
 H         -5.4953893758       -1.8413628605        1.7058590405
 H         -6.5469602361       -3.8530255836        0.6702997656
 H         -7.2887998131       -3.7613793946       -1.6799498563
 H         -6.9895276394       -1.6971293215       -2.9977189422
 H         -5.9227779115        0.2959553278       -1.9313633903
 H         -3.2803127935        0.4736082169        2.2136173388
 H         -3.3315753462       -0.6708238497       -1.2245216207
 H         -1.3514191383       -0.5513814277       -2.6977421754
 H          0.7568979389        0.4248037954       -1.8675246890
 H          1.1395975472        1.5932607182        1.6823657630
 C          1.5463816593        2.8508476923        0.0185097032
 C          0.8482946042        3.4274522523       -1.1724369484
 C          0.5469584553        3.9560896731        0.1955631068
 H          0.9012182656        4.9392727879        0.4661767218
 H         -0.4088016226        3.6971912360        0.6278905952
 H          1.4339730875        4.0317672264       -1.8480983650
 H          0.0932040071        2.8349122243       -1.6640180525
 H          2.5905160513        3.1226609455        0.1353854304
