  62
        -98.94892740
 C          2.2432314798        0.8277200481        0.0783148306
 C          1.5891484545        0.1015137413       -0.9455656080
 C          1.9675945859       -1.3116400886       -1.0747193078
 C          2.8567119249       -1.8359572608       -0.2123529167
 C          3.3389375242       -3.2574586339       -0.2317778711
 C          2.4910054209       -4.1659418514        0.6674409061
 C          0.9848330047       -4.0385912812        0.4385419031
 H          0.4948092630       -4.7685467849        1.0877816706
 H          0.6466300233       -3.0521335270        0.7645907230
 C          0.5372410135       -4.2645137189       -1.0122485032
 H          1.3132706656       -4.7963721245       -1.5651144016
 H         -0.3517106334       -4.8988815862       -1.0052195740
 C          0.1621519819       -2.9805865296       -1.7549132460
 H         -0.3945420436       -3.2543895111       -2.6554202100
 H         -0.5011099060       -2.3865245236       -1.1209746938
 C          1.3382153800       -2.0967379042       -2.1908094662
 H          2.0865823881       -2.7055427356       -2.7036428993
 H          0.9541807199       -1.3553916226       -2.8977136672
 H          2.7996435279       -5.1997886966        0.4980092778
 H          2.6995461085       -3.9160676955        1.7105200606
 H          3.3165239255       -3.6240313815       -1.2564939237
 H          4.3702533853       -3.2709597357        0.1264603734
 O          3.4163969647       -1.1227641097        0.7998818726
 C          3.1137373530        0.2169918217        0.9780787182
 O          3.6778623384        0.7481696850        1.9588162786
 O          0.7468284921        0.6142607048       -1.7278398940
 C          1.9473684146        2.3079085477        0.2617587674
 C          0.4587237384        2.4918476204        0.4172395667
 C         -0.2967957913        3.3933109033       -0.3210561417
 C         -1.6748913479        3.4299178344       -0.1906904761
 C         -2.3280537402        2.5571096880        0.6607946794
 C         -1.5766013066        1.6754031332        1.4250237377
 C         -0.1974577706        1.6666754485        1.3226516329
 H          0.3783481741        0.9619427264        1.9111941084
 N         -2.2573090654        0.7108156116        2.2289412001
 S         -2.2736123444       -0.7773336327        1.4219193940
 O         -3.0205960512       -1.6787131618        2.2745444361
 O         -0.9331015065       -1.2127271665        1.0943513136
 C         -3.2038734157       -0.3963926014       -0.0417880170
 C         -4.5816592379       -0.4726797608        0.0282150289
 C         -5.3291785084       -0.1306273325       -1.0864959615
 C         -4.6877922137        0.2853473966       -2.2440142154
 C         -3.3045449901        0.3589521634       -2.2952271360
 C         -2.5481088800        0.0175628119       -1.1842689789
 H         -1.4699284923        0.0766057603       -1.1993900104
 H         -2.8004587752        0.6864558130       -3.1901839543
 H         -5.2688623514        0.5550213970       -3.1118771033
 H         -6.4052079538       -0.1864280519       -1.0492024236
 H         -5.0308137412       -0.8038238598        0.9501254435
 H         -1.8074210496        0.5662182568        3.1241331191
 H         -3.4028637531        2.5433023034        0.7395039396
 H         -2.2482693697        4.1284103584       -0.7800454917
 H          0.1934944165        4.0541069527       -1.0170408411
 H          2.4398739711        2.6057077526        1.1989545951
 C          2.5414352373        3.1034100187       -0.8818090909
 C          2.9452801110        4.5320588280       -0.6780488259
 C          3.9926767466        3.4713467142       -0.8305864008
 H          4.5659293716        3.4366827801       -1.7447491597
 H          4.5494504750        3.1671109329        0.0440793320
 H          2.8039375150        5.2292891248       -1.4898424421
 H          2.7969973589        4.9586004540        0.3024170639
 H          2.1326718022        2.8162358592       -1.8437337961
