  62
        -98.94055917
 C         -2.0724901902       -0.9830713906        0.2428679894
 C         -1.9147318205        0.0512446401       -0.7129212199
 C         -2.2152292709        1.4127625397       -0.2412372890
 C         -2.5866207708        1.6107897587        1.0353104011
 C         -2.9682541511        2.9366996782        1.6262519520
 C         -4.4746039312        3.1976599479        1.4839310124
 C         -5.0133585013        2.9612121087        0.0729872922
 H         -4.9274423910        1.8991712789       -0.1674542985
 H         -6.0779778613        3.2039538784        0.0870291525
 C         -4.3159864916        3.7838445396       -1.0193023973
 H         -5.0761816918        4.2058424298       -1.6799176269
 H         -3.7778280418        4.6181957895       -0.5682188068
 C         -3.3561489414        2.9822162304       -1.9007553879
 H         -3.0834641817        3.6012815311       -2.7595910375
 H         -3.8645134112        2.0944861905       -2.2852664184
 C         -2.0522323913        2.5342824604       -1.2282853983
 H         -1.3832195612        2.1526806310       -2.0060367586
 H         -1.5643772915        3.3903175502       -0.7563930978
 H         -5.0057481210        2.5327821373        2.1687666820
 H         -4.6755023615        4.2275184477        1.7844212030
 H         -2.7067904910        2.9269200176        2.6857442020
 H         -2.4021147414        3.7233204287        1.1309807125
 O         -2.7090186104        0.5985338881        1.9312935305
 C         -2.4460223101       -0.7079524616        1.5612814796
 O         -2.5917523698       -1.5363646822        2.4843386291
 H          0.4233225298       -1.0163957092       -0.8029254108
 C          0.6794532000       -1.8891204695       -0.2221102414
 C         -0.3116598097       -2.7417765201        0.2402980781
 C          0.0614295907       -3.8646467205        0.9703187573
 C          1.3937566908       -4.1174586103        1.2426943271
 C          2.3760373605       -3.2427227998        0.8153635875
 C          2.0130204401       -2.1199673694        0.0802967083
 N          2.9779544098       -1.2055814388       -0.3708063912
 S          2.5776596794        0.4382909310       -0.3172932901
 O          1.7600548494        0.7116690301        0.8434734002
 O          2.0449239992        0.8308332817       -1.5966615398
 C          4.2010655592        1.1510513314       -0.1102405898
 C          4.9941824191        1.3402446423       -1.2264527797
 C          6.2700775189        1.8557527125       -1.0620534495
 C          6.7299590590        2.1703193918        0.2081998007
 C          5.9222117491        1.9764116909        1.3187061306
 C          4.6454909992        1.4599424506        1.1613637604
 H          3.9782694494        1.2991978899        1.9931459504
 H          6.2805075291        2.2248370403        2.3046539908
 H          7.7231053289        2.5715963520        0.3336010508
 H          6.8996095688        2.0103222233       -1.9233651594
 H          4.5888866790        1.0892704428       -2.1928454398
 H          3.8962430899       -1.3778166488        0.0159614986
 H          3.4142126006       -3.4239664396        1.0488040373
 H          1.6688701611       -4.9924676106        1.8116347865
 H         -0.7034845691       -4.5299645109        1.3422966670
 C         -1.7686477498       -2.4470266503       -0.0334987116
 H         -2.3625815196       -3.0192492710        0.6936830981
 C         -2.1442664698       -2.9126323195       -1.4266649618
 C         -2.4503049394       -4.3612243195       -1.6553054828
 C         -3.5511148297       -3.3454022497       -1.7041427120
 H         -3.9860736198       -3.0938807592       -2.6595475918
 H         -4.2529673396       -3.3141045105       -0.8831384019
 H         -2.1262080494       -4.8132787388       -2.5799208031
 H         -2.4126107091       -5.0236488600       -0.8040282432
 H         -1.6247457100       -2.3758655289       -2.2094659115
 O         -1.5493036606       -0.1249339891       -1.9061015101
