  62
        -98.94480788
 C         -1.6933738126       -1.0300504794       -0.6823898305
 C         -1.6585694755        0.0931241853        0.1800743906
 C         -2.9258020779        0.4221355303        0.8471604607
 C         -4.0128732816       -0.3426814225        0.6421227085
 C         -5.3680532426       -0.1438980709        1.2649952133
 C         -6.2462847426        0.8815480629        0.5347196092
 C         -5.8283434757        2.3418586272        0.7124504373
 H         -6.6482511039        2.9569633031        0.3362852540
 H         -5.7188616002        2.5604873660        1.7751849176
 C         -4.5414697588        2.7280566445       -0.0299271837
 H         -4.3200411622        1.9754775053       -0.7900133641
 H         -4.6929578298        3.6758374255       -0.5512928334
 C         -3.3167941123        2.8969442269        0.8695607388
 H         -3.4738930322        3.7364595926        1.5505029532
 H         -2.4565817459        3.1322602579        0.2380422289
 C         -2.9680882488        1.6545104093        1.6995756565
 H         -1.9730311209        1.7941162651        2.1307413078
 H         -3.6842685109        1.5314906363        2.5120115670
 H         -7.2635902357        0.7686047078        0.9165093924
 H         -6.2611957835        0.6335303144       -0.5290359492
 H         -5.2521772527        0.1510466919        2.3084010666
 H         -5.8703312578       -1.1131278681        1.2316325196
 O         -3.9961852566       -1.4330887762       -0.1699886689
 C         -2.8471954960       -1.7975312468       -0.8521648687
 O         -2.9773147854       -2.8116498182       -1.5676598923
 O         -0.6354905688        0.7959212339        0.3832512941
 C         -0.4465673466       -1.4810005374       -1.4272672225
 C          0.5381887476       -2.0232348932       -0.4190328910
 C          0.2329210914       -3.2094869224        0.2447362975
 C          1.0953000462       -3.7295599639        1.1897989619
 C          2.2699511777       -3.0677028972        1.5072229964
 C          2.5795398295       -1.8802203300        0.8581536498
 C          1.7225049729       -1.3751768372       -0.1110169308
 H          1.9836745806       -0.4627646780       -0.6156817828
 N          3.7676528279       -1.1808824168        1.1407260022
 S          3.6371764476        0.4363759379        1.5958977484
 O          4.9050002532        0.7229946658        2.2371760733
 O          2.4614590353        0.6599145126        2.4037040666
 C          3.5587108095        1.3377416312        0.0640378898
 C          2.4061887550        2.0132812771       -0.2858418102
 C          2.3812057866        2.7042364902       -1.4879644623
 C          3.4973725616        2.7077867763       -2.3104254298
 C          4.6471677347        2.0259210922       -1.9403839591
 C          4.6817101888        1.3346508186       -0.7403186363
 H          5.5552813088        0.7979366122       -0.4098003990
 H          5.5124378151        2.0300953990       -2.5834915084
 H          3.4683826443        3.2442563047       -3.2459858884
 H          1.4843047211        3.2293861938       -1.7770348347
 H          1.5445050023        1.9593908188        0.3617891280
 H          4.3807217075       -1.6632321122        1.7837434894
 H          2.9395332324       -3.4671161615        2.2545183447
 H          0.8492888838       -4.6533604479        1.6919626197
 H         -0.6930347763       -3.7157335813        0.0069805714
 H         -0.7645847675       -2.3150771608       -2.0683529599
 C          0.1131395115       -0.3757734906       -2.2971226023
 C          1.0996679693       -0.7072272031       -3.3750883375
 C         -0.2941918623       -0.2914207915       -3.7357847443
 H         -0.4463169924        0.6847331315       -4.1708869335
 H         -0.9731389797       -1.0449222321       -4.1081820007
 H          1.9082552214       -0.0165535037       -3.5608182948
 H          1.3672258127       -1.7451423861       -3.5028750109
 H          0.2428790625        0.5575205402       -1.7640010139
