  62
        -98.93746069
 C         -2.4349746097       -1.0333727697       -0.0422764394
 C         -3.5510605196       -0.7823946798        0.7898363907
 C         -4.6187408497        0.0643180602        0.2300847209
 C         -4.4768180899        0.5694664802       -1.0097632391
 C         -5.4029781300        1.4215339002       -1.8526687690
 C         -6.6199323899        2.1026031001       -1.2323645488
 C         -6.2905124899        3.2269065001       -0.2506507688
 H         -5.8756963400        4.0672881402       -0.8129060788
 H         -7.2218917399        3.5628519001        0.2102607813
 C         -5.2917587998        2.8716162801        0.8478739811
 H         -5.1364066297        3.7642892601        1.4598157611
 H         -4.3285990898        2.6175055802        0.4004956010
 C         -5.7202735296        1.7398707101        1.7794282711
 H         -6.6972020696        1.9677437100        2.2102708112
 H         -4.9964233395        1.6947688801        2.5976522910
 C         -5.7816057496        0.3427721001        1.1388558510
 H         -5.7264976895       -0.3983398600        1.9416095010
 H         -6.7229308397        0.1881066601        0.6170983011
 H         -7.2671572199        1.3652807301       -0.7667165488
 H         -7.1853282301        2.5419946202       -2.0587193087
 H         -5.7470550200        0.7690773802       -2.6628405490
 H         -4.7669748501        2.1803601003       -2.3195426890
 O         -3.3725498499        0.3099796303       -1.7700445092
 C         -2.3314797098       -0.4842110597       -1.3185272294
 O         -1.4021350999       -0.6194558396       -2.1367072095
 O         -3.6586085195       -1.2547831699        1.9532639907
 C         -1.3153882296       -1.9121637697        0.4881715405
 C         -0.0626147696       -1.0847649096        0.6330846804
 C         -0.0006725495       -0.1374324097        1.6522154504
 C          1.1189240304        0.6555077704        1.8136795203
 C          2.1998790704        0.5269772405        0.9581545802
 C          2.1473407403       -0.4111203195       -0.0627434999
 C          1.0245915303       -1.2152984095       -0.2155613998
 H          0.9975754403       -1.9349687295       -1.0187126498
 N          3.2354718602       -0.5332869594       -0.9445491300
 S          4.7634420903       -0.7649881094       -0.2916703401
 O          5.5213558102       -1.4374181393       -1.3243768303
 O          4.6940236404       -1.4294781394        0.9893967598
 C          5.4011138602        0.8847862706       -0.0877952701
 C          5.4716785701        1.6985010107       -1.2015104001
 C          5.9745390300        2.9820647207       -1.0613002801
 C          6.3979722301        3.4269326407        0.1824091599
 C          6.3236718603        2.5966176306        1.2902209198
 C          5.8211260003        1.3115631506        1.1567217498
 H          5.7405043205        0.6321609206        1.9902941298
 H          6.6541134504        2.9441149806        2.2559274798
 H          6.7886753301        4.4266709707        0.2884632299
 H          6.0340548999        3.6305972608       -1.9205391201
 H          5.1354820900        1.3138621807       -2.1500246501
 H          3.0674609802       -1.1718781694       -1.7083559000
 H          3.0755478603        1.1445807505        1.0743641601
 H          1.1519612805        1.3827933103        2.6106799103
 H         -0.8481491495       -0.0328234597        2.3157995405
 H         -1.6377750095       -2.2162306297        1.4938807905
 C         -1.1409101296       -3.1531752796       -0.3611850496
 C         -0.3851418695       -4.3246154696        0.1891855803
 C         -1.8714597795       -4.4053444297        0.0158975804
 H         -2.2658643696       -5.0286281397       -0.7725898196
 H         -2.4924083594       -4.3737506198        0.8990428705
 H          0.2426025605       -4.8957253896       -0.4782311398
 H          0.0069862006       -4.2373646197        1.1913404902
 H         -1.0453273197       -2.9358361096       -1.4187846496
