  62
        -98.94850200
 C          1.2456343421        1.5181435025        0.4945170794
 C          2.1465128935        1.1629060084       -0.5381993316
 C          3.1785395339        0.1810594019       -0.1767386017
 C          3.2174495465       -0.3081972301        1.0757127583
 C          4.1948486959       -1.3359588483        1.5664066909
 C          3.6357766786       -2.7577932391        1.4225186181
 C          3.0585970975       -3.0653672489        0.0403126335
 H          2.7480157856       -4.1131151547        0.0473542719
 H          2.1495725847       -2.4772162815       -0.1113394723
 C          4.0306350674       -2.8302423634       -1.1243285321
 H          5.0561264561       -2.8129431581       -0.7523548342
 H          3.9500093583       -3.6714558893       -1.8162014407
 C          3.7625338196       -1.5615353085       -1.9364674270
 H          4.3371328297       -1.6249582789       -2.8646983764
 H          2.7037487531       -1.5216766262       -2.2074000473
 C          4.1365436702       -0.2391996049       -1.2546473832
 H          5.1564021868       -0.2981912040       -0.8689350454
 H          4.0987319085        0.5487391886       -2.0126739420
 H          2.8387975958       -2.8954786790        2.1571464172
 H          4.4352029546       -3.4660586149        1.6501936885
 H          5.1231714676       -1.2416811227        1.0062342896
 H          4.3961670118       -1.1413521290        2.6215657119
 O          2.3381405412        0.0600087735        2.0419382845
 C          1.3113939825        0.9485796338        1.7648009405
 O          0.5342443607        1.1516619369        2.7212413714
 H         -0.4202492613       -0.0971550095       -0.2635666919
 C         -0.9747050192        0.5419469163       -0.9320507683
 C         -0.8013099854        1.9162017472       -0.8638261901
 C         -1.5032681884        2.7145048325       -1.7592544809
 C         -2.3407048139        2.1391001612       -2.6994128356
 C         -2.5123348667        0.7674743255       -2.7592249013
 C         -1.8169180531       -0.0386844126       -1.8656301757
 N         -1.9436697149       -1.4353376309       -1.8866638137
 S         -1.8609223270       -2.3025270477       -0.4603628224
 O         -0.5080631696       -2.3411280607        0.0341292830
 O         -2.4478821931       -3.5833155809       -0.7926445605
 C         -2.9355925901       -1.4262074978        0.6618450386
 C         -4.2937142735       -1.4910285408        0.4122363313
 C         -5.1630361357       -0.7845608698        1.2258499686
 C         -4.6621799658       -0.0203855676        2.2696205467
 C         -3.2986825435        0.0305631536        2.5107458715
 C         -2.4237456389       -0.6787847931        1.7019783914
 H         -1.3592159458       -0.6484673086        1.8757396806
 H         -2.8969016942        0.6215380120        3.3186246999
 H         -5.3366698219        0.5362052145        2.9009214832
 H         -6.2246649276       -0.8281461854        1.0437744845
 H         -4.6437291057       -2.1053990327       -0.4013480431
 H         -2.6471438020       -1.7962531478       -2.5133871459
 H         -3.1652612599        0.3230152685       -3.4943995599
 H         -2.8733433760        2.7696843223       -3.3948813592
 H         -1.3874713317        3.7855701112       -1.7258595434
 C          0.1059462013        2.4766088705        0.2069338590
 H         -0.4783397419        2.5420668533        1.1377258389
 C          0.6402581585        3.8544696204       -0.1298249763
 C         -0.1128744124        5.0834153862        0.2799858509
 C          1.1601529891        4.7168993090        0.9798127606
 H          2.0422972832        5.3128652537        0.8005015215
 H          1.0985725061        4.3207342994        1.9833454110
 H         -0.1032486470        5.9375884870       -0.3802745173
 H         -1.0393227348        4.9486010525        0.8176108244
 H          1.1785628711        3.8707701673       -1.0702581037
 O          2.0923032256        1.6385329064       -1.7026081921
