  62
        -98.94453164
 C          1.2494500157        1.7828951624       -0.6896140400
 C          2.4376596699        1.6651227830        0.0779877289
 C          3.3781564176        0.6175334745       -0.3273300975
 C          3.1076552991       -0.1344069444       -1.4090161643
 C          3.9445951819       -1.2685149030       -1.9332751911
 C          3.6545409420       -2.6021114042       -1.2300781232
 C          4.2090595021       -2.7176538228        0.1905698434
 H          4.1450671658       -3.7704094502        0.4732638767
 H          5.2643002724       -2.4407570631        0.1942152955
 C          3.4496853832       -1.8841941528        1.2327754274
 H          2.4668765625       -1.6151651566        0.8357357625
 H          3.2695835640       -2.4932938365        2.1222841578
 C          4.1787240037       -0.6201863083        1.6918671333
 H          3.5269641913       -0.0865156164        2.3887257274
 H          5.0894587335       -0.8995756512        2.2270146421
 C          4.5538839362        0.3468941989        0.5611495528
 H          4.8591930427        1.2956045103        1.0096413248
 H          5.3865198784       -0.0529320341       -0.0170260171
 H          2.5722418830       -2.7571668690       -1.2061668600
 H          4.0940938458       -3.3973718775       -1.8371552323
 H          3.7009883431       -1.3759526969       -2.9924884808
 H          5.0033832291       -1.0251811109       -1.8406013493
 O          2.0049218019        0.0651078766       -2.1717518786
 C          1.0113938536        0.9657449557       -1.7951337167
 O          0.0159337176        0.9352600425       -2.5420812137
 O          2.6882608723        2.4003986134        1.0711901850
 C          0.2015672206        2.7290393433       -0.1283356565
 C         -0.4806765605        2.0573869636        1.0412603692
 C         -0.8352247413        2.7593811538        2.1868412954
 C         -1.4317700749        2.1044151891        3.2506736159
 C         -1.6698357386        0.7426637124        3.2021071103
 C         -1.3027668762        0.0274913214        2.0660144698
 C         -0.7358524383        0.6952689303        0.9919074295
 H         -0.4445049907        0.1335726505        0.1202784062
 N         -1.4626590503       -1.3583221646        2.0087497241
 S         -1.4383630613       -2.2562159594        0.6058390133
 O         -1.7767701109       -3.5901985526        1.0556027034
 O         -0.1728552212       -2.1201015700       -0.0696381668
 C         -2.7880421825       -1.6238598646       -0.3726368461
 C         -2.5695903442       -0.8942343769       -1.5220796183
 C         -3.6659161857       -0.4229312396       -2.2301018979
 C         -4.9499526534       -0.6807845017       -1.7794602829
 C         -5.1526668409       -1.4172759676       -0.6211790796
 C         -4.0639176232       -1.8938416886        0.0881295174
 H         -4.1779331632       -2.4868957810        0.9808989862
 H         -6.1523461339       -1.6202226604       -0.2723604189
 H         -5.7960156706       -0.3076786127       -2.3346721227
 H         -3.4971910538        0.1483989456       -3.1287244484
 H         -1.5650214308       -0.6859072175       -1.8569443730
 H         -1.9822285405       -1.7874030726        2.7573225408
 H         -2.1134189366        0.2305392008        4.0418052272
 H         -1.7030069204        2.6589390188        4.1361516696
 H         -0.6171835977        3.8149673629        2.2534710646
 H          0.7635639682        3.5881700192        0.2732511450
 C         -0.7834318581        3.2624248566       -1.1553540471
 C         -2.1852522877        2.7527098339       -1.2752526069
 C         -1.9351703066        4.1254794186       -0.7317488577
 H         -2.1880371305        4.9775476815       -1.3441650600
 H         -2.0880830476        4.2783116528        0.3251922299
 H         -2.5956746028        2.6487780430       -2.2671459253
 H         -2.5031894786        1.9792993787       -0.5924434881
 H         -0.2905806662        3.5310405433       -2.0833778954
