  62
        -98.94434987
 C          1.5948494068        1.3955115561        0.5239712807
 C          1.6267591144        0.0957717746        1.0909683850
 C          2.7712270421       -0.7415428315        0.7172899614
 C          3.7094355058       -0.2549287505       -0.1152400768
 C          4.9530600944       -0.9727395501       -0.5654320126
 C          4.7379395994       -1.9019015074       -1.7678699768
 C          3.9653272674       -3.1861752073       -1.4653123002
 H          4.0730091996       -3.8368267188       -2.3354175252
 H          4.4274246462       -3.6952344818       -0.6189627830
 C          2.4703181280       -2.9737770050       -1.1883100272
 H          1.8887950389       -3.7104191733       -1.7466479790
 H          2.1680949017       -1.9884653970       -1.5512412182
 C          2.0713561612       -3.1034901254        0.2815099531
 H          1.0025849407       -2.8927454861        0.3632135249
 H          2.2433782746       -4.1282280154        0.6171675902
 C          2.8118496342       -2.1499285335        1.2279567616
 H          2.3059297425       -2.1668827162        2.1960743019
 H          3.8427859613       -2.4757750987        1.3645664677
 H          5.7246711223       -2.1765630255       -2.1480092090
 H          4.2234174373       -1.3428951217       -2.5529837663
 H          5.6705035395       -0.2005785973       -0.8515914899
 H          5.3688281848       -1.5420508234        0.2663195366
 O          3.6387771503        0.9942181785       -0.6448638108
 C          2.5693561317        1.8369222744       -0.3713721769
 O          2.6236179429        2.9264904736       -0.9724854627
 H         -1.3575107240        0.3941556254        0.2653142458
 C         -1.3808951793        1.1875619163       -0.4673029170
 C         -0.5331028611        2.2783937278       -0.3152123088
 C         -0.5555314661        3.2830540665       -1.2745223887
 C         -1.4106512817        3.1908527661       -2.3585422936
 C         -2.2703501674        2.1158115206       -2.4939972869
 C         -2.2557177644        1.1053998031       -1.5386417696
 N         -3.1102534997       -0.0027556331       -1.6443247576
 S         -3.8895954345       -0.5693680156       -0.2714127621
 O         -5.0830911220       -1.2146920407       -0.7790136403
 O         -4.1019571243        0.4892829416        0.6877782150
 C         -2.8152308549       -1.8206417982        0.3936626976
 C         -2.3943981670       -1.7408428672        1.7051627922
 C         -1.6006028056       -2.7542468743        2.2176702670
 C         -1.2480797214       -3.8259054932        1.4132683291
 C         -1.6788254422       -3.8915521967        0.0958333313
 C         -2.4705729148       -2.8806047532       -0.4221645313
 H         -2.8304219650       -2.8973601399       -1.4375724984
 H         -1.3959110660       -4.7255365010       -0.5263154345
 H         -0.6302577692       -4.6136353433        1.8150646600
 H         -1.2543100461       -2.6956811699        3.2366453425
 H         -2.6863761010       -0.8880108400        2.2973910696
 H         -3.7371598468        0.0244899467       -2.4356579522
 H         -2.9469309593        2.0544967776       -3.3332679459
 H         -1.4155675670        3.9732191916       -3.1026224039
 H          0.1118774107        4.1238675685       -1.1819237040
 C          0.4085785578        2.2833996548        0.8638107441
 H         -0.1016857060        1.7772550270        1.6952835807
 C          0.8136448464        3.6685900087        1.3183938169
 C         -0.2025697257        4.5332813088        2.0007564292
 C          0.9337760528        3.9508435593        2.7847792743
 H          1.7211671096        4.6097534343        3.1188439394
 H          0.7202019284        3.1435763155        3.4701017279
 H         -1.1885301498        4.1180632033        2.1492570178
 H         -0.1986116289        5.5933870553        1.7985055419
 H          1.5300923367        4.1478319758        0.6634461473
 O          0.7449215126       -0.3393883632        1.8778220367
