  62
        -98.93263629
 C         -2.5580207989       -1.4158919704       -0.0418741389
 C         -2.4800555992       -0.1776078909       -0.7217891597
 C         -3.7396197595        0.5730349987       -0.8303814904
 C         -4.8710769794        0.0569586387       -0.3172197301
 C         -6.2502737395        0.6573879683       -0.3912872107
 C         -6.4595809600        1.9830855887        0.3656899083
 C         -6.2696646403        3.2388370182       -0.4939724026
 H         -6.4456306901        2.9792477474       -1.5385507024
 H         -7.0324533005        3.9703726881       -0.2197906232
 C         -4.9133036805        3.9384912087       -0.3629075129
 H         -4.8187288406        4.6439214681       -1.1912724134
 H         -4.8975664507        4.5166273993        0.5638669366
 C         -3.6884573502        3.0234524490       -0.3507208022
 H         -2.7955546304        3.6445026592       -0.4494743525
 H         -3.6087741702        2.5274625698        0.6199251182
 C         -3.6834478998        1.9402619682       -1.4469803914
 H         -4.5135669098        2.0866008475       -2.1365638116
 H         -2.7508160697        1.9892533981       -2.0127043913
 H         -7.4860707800        1.9765193787        0.7356936782
 H         -5.8033540001        2.0134584096        1.2351556284
 H         -6.5158496495        0.7950599874       -1.4418209608
 H         -6.9180763393       -0.0992812416        0.0254852498
 O         -4.9021880491       -1.1454214308        0.3208543807
 C         -3.7528587089       -1.8981437004        0.4915934614
 O         -3.9215115486       -2.9613991500        1.1223825021
 O         -1.4180127293        0.2760391491       -1.2238821900
 C         -1.3102493487       -2.2617405399        0.1387947319
 C         -0.2594145990       -1.4642061591        0.8730096114
 C         -0.6011729293       -0.8688634283        2.0848795209
 C          0.3200739204       -0.1168435775        2.7868259905
 C          1.6056312804        0.0546995525        2.3022610105
 C          1.9584115107       -0.5365569183        1.0979541410
 C          1.0282677110       -1.2940170091        0.3934385014
 H          1.3162406212       -1.7430282796       -0.5442140282
 N          3.2699464707       -0.4065676182        0.6032600310
 S          4.0469730402        1.0878325721        0.7164227400
 O          4.4373571600        1.3004659032        2.0877436199
 O          3.2396685200        2.1289709414        0.1199800392
 C          5.4904681004        0.7669056218       -0.2780986496
 C          5.4819478405        1.1130219808       -1.6159723299
 C          6.5976627506        0.8303219906       -2.3883666896
 C          7.6950489408        0.2069632613       -1.8135290990
 C          7.6886682407       -0.1340081777       -0.4690978388
 C          6.5768822406        0.1466604425        0.3089719709
 H          6.5292571805       -0.0918160568        1.3585325311
 H          8.5448874708       -0.6163419272       -0.0259469683
 H          8.5616987809       -0.0116784489       -2.4172085788
 H          6.6065248207        1.0967113498       -3.4331023298
 H          4.6103439604        1.6040841503       -2.0189717803
 H          3.3494039309       -0.7657890489       -0.3389557387
 H          2.3293338302        0.6479847431        2.8367729001
 H          0.0375725102        0.3443317731        3.7217784701
 H         -1.6065297293       -0.9981536583        2.4639254609
 H         -1.6047900685       -3.1053860995        0.7796378725
 C         -0.8520656184       -2.8029498008       -1.1992405577
 C         -0.0636801580       -4.0754732906       -1.2687458167
 C         -1.4894136180       -4.0507523713       -1.7293281569
 H         -1.6928689079       -4.1159155621       -2.7876508968
 H         -2.2384700179       -4.5244112611       -1.1115136166
 H          0.7116295421       -4.1630067809       -2.0149820266
 H          0.1594160520       -4.5757198498       -0.3386205763
 H         -0.6266216886       -2.0169453712       -1.9110940382
