  62
        -98.93584127
 C         -2.2301754611       -0.2068963110        0.3700241489
 C         -3.3427670795       -0.7530359793       -0.3182337616
 C         -4.4076720855        0.2012171606       -0.6638226953
 C         -4.2686021421        1.5055977186       -0.3708181030
 C         -5.2514977024        2.5983581660       -0.6935111238
 C         -6.3842134321        2.7431149670        0.3321079582
 C         -7.4339780852        1.6314770185        0.3033136357
 H         -8.2737616327        1.9685741617        0.9141451061
 H         -7.8015308600        1.5072699716       -0.7156783345
 C         -6.9414762698        0.2815049500        0.8432285981
 H         -6.0283756850        0.4330764064        1.4238015358
 H         -7.6881245913       -0.1327062006        1.5245591702
 C         -6.6747992301       -0.7716408445       -0.2322935210
 H         -7.6107155763       -1.0287719153       -0.7330623886
 H         -6.2954403888       -1.6724631440        0.2566668565
 C         -5.6538060083       -0.3439787190       -1.2945610555
 H         -5.3730379455       -1.2259676703       -1.8750613692
 H         -6.0946277896        0.3925876443       -1.9656491765
 H         -6.8856339821        3.6926445138        0.1310682564
 H         -5.9448220634        2.8045891797        1.3305174964
 H         -5.6751062645        2.4291375806       -1.6838685026
 H         -4.6826169522        3.5304568811       -0.7125894592
 O         -3.1671964196        1.9979920323        0.2589171953
 C         -2.1444888210        1.1568788039        0.6627917027
 O         -1.2210531109        1.7364259767        1.2724448930
 O         -3.4610050214       -1.9617944122       -0.6405621554
 C         -1.0513012221       -1.0441484547        0.8383575079
 C         -0.0105640336       -1.1630547467       -0.2457356045
 C         -0.3500312071       -1.5761441456       -1.5308061816
 C          0.6193188411       -1.6757632344       -2.5114543792
 C          1.9383313178       -1.3634878925       -2.2334725724
 C          2.2893860553       -0.9555255485       -0.9517634097
 C          1.3140396829       -0.8581196865        0.0315394653
 H          1.5949550677       -0.5184285069        1.0172409698
 N          3.6314718560       -0.6795303003       -0.6364569643
 S          3.9816994222        0.5778356833        0.4359803822
 O          3.7369163462        0.1211638737        1.7806772318
 O          3.3019007198        1.7859097096        0.0254860463
 C          5.7378466218        0.7316956523        0.1669132509
 C          6.2145045406        1.7262786125       -0.6657758289
 C          7.5796710843        1.8170282072       -0.8885507479
 C          8.4396385307        0.9147243150       -0.2808447051
 C          7.9463146469       -0.0778974571        0.5530996751
 C          6.5828388023       -0.1734000549        0.7811720768
 H          6.1543644280       -0.9212582655        1.4276462681
 H          8.6182620199       -0.7757234682        1.0260481642
 H          9.5013783341        0.9876411335       -0.4558473124
 H          7.9659974534        2.5898851990       -1.5333099533
 H          5.5086616899        2.4104501483       -1.1090319381
 H          4.2147517203       -0.6182059121       -1.4606649312
 H          2.6923835277       -1.4377951040       -3.0023848843
 H          0.3438793134       -1.9951779756       -3.5053298415
 H         -1.3782873553       -1.8214617753       -1.7480712463
 H         -0.5978957391       -0.4677529493        1.6616719601
 C         -1.4686251732       -2.3934992803        1.4100406000
 C         -1.1512584714       -3.7043629632        0.7623235696
 C         -0.4311975200       -3.2963042642        2.0098690766
 H         -0.6591753191       -3.8046958333        2.9345401215
 H          0.6007145621       -2.9901083349        1.9170181195
 H         -1.8973238573       -4.4818011531        0.8222883559
 H         -0.6051817692       -3.6961536190       -0.1673541559
 H         -2.4189009433       -2.3333848540        1.9309263337
