  62
        -98.93429697
 C         -1.7616949092       -0.8983614805       -0.8102972295
 C         -1.9628691595       -0.3179017600        0.4645276902
 C         -3.3671614696       -0.1515482502        0.8912376499
 C         -4.3552073594       -0.5802186108        0.0881496299
 C         -5.8375288695       -0.4560197011        0.3082989196
 C         -6.3813468197        0.8198018985       -0.3570041509
 C         -6.3192526202        2.0755894088        0.5115855286
 H         -6.6116482103        2.9198968785       -0.1169972418
 H         -7.0566441603        1.9935383689        1.3129080385
 C         -4.9525393904        2.3748677294        1.1329766787
 H         -4.9304764907        3.4337301695        1.3977759583
 H         -4.1678804802        2.2108391294        0.3922851589
 C         -4.6661854203        1.5422359600        2.3915174791
 H         -5.5895975303        1.0661378499        2.7208966991
 H         -4.3553603807        2.2060694604        3.2008816889
 C         -3.5639523600        0.4831190002        2.2411295897
 H         -2.5937589402        0.9298439006        2.4802292397
 H         -3.7291465800       -0.3109160396        2.9771439399
 H         -5.8193393996        0.9820474683       -1.2804507809
 H         -7.4237985496        0.6524620281       -0.6355090611
 H         -6.2966945192       -1.3220502714       -0.1730945601
 H         -6.0737171096       -0.4786141908        1.3679926896
 O         -4.1151696190       -1.1714981912       -1.1153440998
 C         -2.8292422389       -1.3522928510       -1.5882550995
 O         -2.7648786186       -1.9286948314       -2.6926754393
 O         -1.0284678898        0.0546870905        1.2194829803
 C         -0.3686113590       -1.1314161603       -1.3688524092
 C          0.5275246310       -1.7166725597       -0.3053061588
 C          0.1487791412       -2.9121192995        0.3015939216
 C          0.9330116412       -3.4872023390        1.2812847619
 C          2.1266209210       -2.8968527485        1.6596672719
 C          2.5174675807       -1.7095489686        1.0555356415
 C          1.7162699408       -1.1231384792        0.0853384312
 H          2.0270623006       -0.1885329393       -0.3494057491
 N          3.7145637205       -1.0754131782        1.4193494215
 S          4.6738496205       -0.3850962284        0.2372212414
 O          4.5899932609       -1.1125616188       -1.0084155384
 O          5.9903083604       -0.3054683378        0.8350332216
 C          4.0417466401        1.2655797414        0.0274144307
 C          3.9663334902        1.7975358309       -1.2445650896
 C          3.5185370799        3.0998678507       -1.4021498201
 C          3.1559758195        3.8436176710       -0.2895663505
 C          3.2375652794        3.2941141915        0.9808733298
 C          3.6884110897        1.9943185217        1.1454712103
 H          3.7622729697        1.5361313221        2.1174264205
 H          2.9500086591        3.8741669118        1.8428661895
 H          2.8041929092        4.8556248409       -0.4145091009
 H          3.4525920399        3.5275470603       -2.3901967903
 H          4.2473689505        1.1797652107       -2.0828111493
 H          4.2630224405       -1.5605799978        2.1141271018
 H          2.7454380009       -3.3482380580        2.4204907222
 H          0.6195118313       -4.4083434089        1.7496097922
 H         -0.7802182486       -3.3781997999        0.0002710916
 H         -0.5007822187       -1.9006876406       -2.1486684789
 C          0.2358170208        0.0834672896       -2.0573947895
 C         -0.6348663394        1.1036414391       -2.7265431101
 C          0.1225469903        1.4634337398       -1.4855137001
 H          0.9715872702        2.1251247100       -1.5747047802
 H         -0.4210095799        1.5747094500       -0.5612335502
 H         -0.3076264993        1.5151064689       -3.6694705502
 H         -1.7048202393        0.9700028589       -2.6575051602
 H          1.1649143109       -0.1617714403       -2.5643714493
