  62
        -98.94343365
 C         -2.2859075117       -0.5635899563        0.0174436752
 C         -3.2029788437       -0.2927623793        1.0691299070
 C         -4.1600060489        0.7930935572        0.8390279920
 C         -4.1138378254        1.4860504833       -0.3127310095
 C         -5.0044075930        2.6377682212       -0.6920541269
 C         -6.3546190666        2.2136925072       -1.2863452067
 C         -7.3497736182        1.6232473571       -0.2865372682
 H         -7.4566240397        2.3005620073        0.5613046360
 H         -8.3177834702        1.5755053838       -0.7892794836
 C         -6.9853892257        0.2191769776        0.2158702828
 H         -6.2447830102       -0.2262492452       -0.4525208505
 H         -7.8704329954       -0.4202479355        0.1830240795
 C         -6.4492244730        0.1769185866        1.6469382532
 H         -6.1873158976       -0.8573330495        1.8841499265
 H         -7.2310879962        0.4936993887        2.3406521721
 C         -5.2065995377        1.0456781847        1.8818103756
 H         -5.4818813216        2.0999552313        1.8965298340
 H         -4.7802413408        0.7801947014        2.8521325271
 H         -6.1729151928        1.4940166808       -2.0879894299
 H         -6.8061846028        3.1020658202       -1.7339470665
 H         -4.4631177125        3.2146353660       -1.4450700206
 H         -5.1720292477        3.2728002595        0.1783310841
 O         -3.2057936518        1.2163943088       -1.2855961086
 C         -2.2890890325        0.1815340473       -1.1614802914
 O         -1.5553171824        0.0564441869       -2.1643084651
 O         -3.2216016000       -0.9375290948        2.1506573438
 C         -1.3263121720       -1.7202638635        0.2409333633
 C          0.0588877293       -1.2549392851        0.6233020689
 C          0.6080037267       -1.5961887268        1.8538033805
 C          1.8912164183       -1.1998192403        2.1877984260
 C          2.6508738954       -0.4535944813        1.3049354533
 C          2.1097673328       -0.1029339356        0.0749719062
 C          0.8254614084       -0.5071392948       -0.2593344810
 H          0.4093287297       -0.2285460040       -1.2163822482
 N          2.8681136580        0.6731802421       -0.8229247146
 S          4.3655005639        0.0646643176       -1.2852467533
 O          4.6513300073        0.6782218100       -2.5637662528
 O          4.3834604459       -1.3798407526       -1.2473436164
 C          5.4879023817        0.7177293279       -0.0666676798
 C          6.2657192455       -0.1418486265        0.6841967703
 C          7.1392496211        0.3898965196        1.6201955101
 C          7.2193791936        1.7639440312        1.7870893666
 C          6.4332405815        2.6137360437        1.0228936677
 C          5.5589254508        2.0888000572        0.0847109174
 H          4.9339216553        2.7130045656       -0.5320250211
 H          6.4987396802        3.6817374326        1.1551132743
 H          7.8989555975        2.1754035191        2.5166028774
 H          7.7518255393       -0.2688338653        2.2145446779
 H          6.1648294030       -1.2032412067        0.5231163224
 H          2.3421090252        0.9522363196       -1.6395291279
 H          3.6501436253       -0.1400511351        1.5595484783
 H          2.3042425587       -1.4733304082        3.1466209752
 H          0.0173559938       -2.1699080262        2.5530793609
 H         -1.7401778449       -2.2670268467        1.0990486743
 C         -1.2544144800       -2.6706747470       -0.9395380970
 C         -0.8008244833       -4.0800186841       -0.7113743899
 C         -2.2362788426       -3.7975910908       -1.0371720268
 H         -2.6103734745       -4.0711403963       -2.0123697199
 H         -2.9665887574       -3.8933921441       -0.2468742054
 H         -0.1831538565       -4.5491702054       -1.4618416073
 H         -0.5583374477       -4.3691326812        0.2999505816
 H         -0.9573769499       -2.1900131487       -1.8629392220
