  62
        -98.93980387
 C          1.8591476304        1.1098710709        0.5180787691
 C          2.1318174805       -0.2031079188        0.9822379299
 C          3.4785691605       -0.7257877989        0.7212500801
 C          4.3668040104        0.0482786208        0.0723536795
 C          5.7583658004       -0.3698611194       -0.3028306903
 C          5.7922446003       -1.0021503803       -1.7012540999
 C          4.7316910504       -2.0818377605       -1.9174157091
 H          3.7416262304       -1.6206679106       -1.8884341993
 H          4.8710502603       -2.4770278612       -2.9260924088
 C          4.7831355106       -3.2346392098       -0.9049034083
 H          5.7529014206       -3.2462887494       -0.4059461384
 H          4.6855409206       -4.1789021702       -1.4448399277
 C          3.6720102407       -3.2048595592        0.1462338118
 H          2.7039040806       -3.0972784096       -0.3496224182
 H          3.6693527208       -4.1675228989        0.6644489124
 C          3.7942183707       -2.1101156885        1.2136665110
 H          3.0606295008       -2.3248710581        1.9961483412
 H          4.7904830307       -2.1419346881        1.6595345209
 H          6.7846512403       -1.4265168703       -1.8643331797
 H          5.6344273702       -0.2143846908       -2.4417281004
 H          6.3962526003        0.5156962307       -0.2990626610
 H          6.1312857905       -1.0767242188        0.4359820401
 O          4.0735114703        1.2985203905       -0.3617721813
 C          2.8169102802        1.8605056405       -0.1664228815
 O          2.7047007301        3.0020629202       -0.6521504623
 H         -2.1933037196        1.4059928708        0.9437566592
 C         -1.8462675697        1.3844942202       -0.0797270808
 C         -0.4875578698        1.5069641601       -0.3446705010
 C         -0.0678784899        1.4718212292       -1.6681735810
 C         -0.9797340200        1.3028948485       -2.6964046508
 C         -2.3290180999        1.1658984186       -2.4266870406
 C         -2.7622928298        1.2123587094       -1.1088463606
 N         -4.1404008698        1.0348065095       -0.8438913503
 S         -4.6765714396       -0.5530173807       -0.9583071192
 O         -4.2688092397       -1.0836737215       -2.2324794589
 O         -6.0960953696       -0.5171875806       -0.6939590091
 C         -3.8297307995       -1.3748559697        0.3785853612
 C         -2.4838934594       -1.6543599797        0.2386254913
 C         -1.7854757193       -2.1497407589        1.3289556916
 C         -2.4483014892       -2.3723971382        2.5266346518
 C         -3.8040682292       -2.1054535082        2.6459976817
 C         -4.5008092293       -1.5853554090        1.5672752314
 H         -5.5502432593       -1.3434386190        1.6193027514
 H         -4.3140979991       -2.2862309676        3.5786896719
 H         -1.8962549991       -2.7516788075        3.3721755120
 H         -0.7228471493       -2.3191438989        1.2529878716
 H         -2.0010525995       -1.4799525403       -0.7097381089
 H         -4.4278620297        1.4107790800        0.0498041994
 H         -3.0489944000        1.0061017980       -3.2121964404
 H         -0.6323794101        1.2739518778       -3.7182320608
 H          0.9821112501        1.5814015592       -1.8929970012
 C          0.4777811703        1.6617934209        0.8096572988
 H          0.0938744405        1.0472440115        1.6367419993
 C          0.5028701403        3.1106360012        1.2631300878
 C         -0.4704261197        3.5937785719        2.2940969476
 C          0.9781628904        3.4381309322        2.6456833776
 H          1.5810585803        4.3224713723        2.7853397769
 H          1.2616355705        2.6127118427        3.2825585081
 H         -1.1635128796        2.8799910421        2.7127072182
 H         -0.8717765698        4.5904414218        2.1935894270
 H          0.7806918001        3.7958279507        0.4721805874
 O          1.2847169706       -0.9045478685        1.5961205004
