  62
        -98.94270682
 C         -2.4001466495       -0.9033104194        0.5049086199
 C         -2.4830151895        0.1174745408       -0.4731195698
 C         -3.4763884493        1.1689834409       -0.2140466995
 C         -4.2155973892        1.1367424907        0.9089454606
 C         -5.2432613190        2.1535247008        1.3258720010
 C         -6.6289116891        1.9339856812        0.7035565811
 C         -6.7347486592        2.2724356716       -0.7839094288
 H         -6.3506496290        3.2785969816       -0.9547172286
 H         -7.7971765192        2.2824312118       -1.0353446687
 C         -6.0179248294        1.2810681617       -1.7111073092
 H         -6.6726243795        1.0262223720       -2.5476048192
 H         -5.8173609995        0.3543599315       -1.1684943494
 C         -4.7078972094        1.8003229117       -2.3036464092
 H         -4.9132701193        2.6513215719       -2.9569512889
 H         -4.2695330796        1.0061617518       -2.9134086394
 C         -3.6669178092        2.2260754912       -1.2599921192
 H         -3.9606942390        3.1688288011       -0.7991011189
 H         -2.7096847392        2.3672946912       -1.7677609492
 H         -7.3343383189        2.5651841311        1.2488602913
 H         -6.9224565092        0.8938107912        0.8624848608
 H         -5.3366637989        2.0725199205        2.4109523610
 H         -4.8879441488        3.1549762608        1.0815837512
 O         -4.0907952292        0.1499230605        1.8355364203
 C         -3.1973502294       -0.8905531596        1.6534792600
 O         -3.2033553794       -1.7342140599        2.5721849597
 H          0.3998959503       -0.9675806594       -1.3467513504
 C          0.7747602904       -1.0189867697       -0.3366265005
 C         -0.0249468696       -1.5475619898        0.6650261195
 C          0.4674999605       -1.5735916403        1.9663605994
 C          1.7276338706       -1.0824623405        2.2531083094
 C          2.5194541106       -0.5469228204        1.2521614695
 C          2.0354495305       -0.5112461800       -0.0484396205
 N          2.8130351205        0.0620961902       -1.0658350404
 S          4.4406262404       -0.3102285901       -1.1795087107
 O          4.7936766403       -0.0485382797       -2.5577288806
 O          4.7184688102       -1.6400570302       -0.6880654411
 C          5.2296394907        0.9017138296       -0.1402005704
 C          6.1114134707        0.4983141792        0.8431799494
 C          6.7210259310        1.4607570989        1.6330173296
 C          6.4406905412        2.8024716590        1.4254288399
 C          5.5548551911        3.1914546294        0.4315222901
 C          4.9428766909        2.2343593597       -0.3618103101
 H          4.2503052808        2.4956560200       -1.1446510499
 H          5.3387532613        4.2357861494        0.2731747704
 H          6.9148346513        3.5497695487        2.0419243401
 H          7.4100372610        1.1605880785        2.4060947894
 H          6.2946717806       -0.5565389409        0.9725155591
 H          2.3640167204        0.0701392705       -1.9696648404
 H          3.5017525607       -0.1607663206        1.4698822195
 H          2.0974585707       -1.1131935509        3.2667214894
 H         -0.1563418494       -1.9754548404        2.7525305794
 C         -1.4180856397       -2.0591722196        0.3856111295
 H         -1.6837343097       -2.7584692297        1.1894418993
 C         -1.5344548300       -2.7841434792       -0.9397355007
 C         -0.8901034202       -4.1282786893       -1.0903395811
 C         -2.3831972102       -4.0149222790       -1.0293646910
 H         -2.9508719803       -4.1843548987       -1.9321093909
 H         -2.8840988401       -4.3447608292       -0.1307701910
 H         -0.3759197702       -4.5324695396       -0.2312096513
 H         -0.4296175603       -4.3785375391       -2.0339885312
 H         -1.5337029999       -2.1246873290       -1.7978152005
 O         -1.7767361996        0.1664370010       -1.5144601999
