  62
        -98.93807211
 C          1.2067996102        1.0452473210        0.1944715498
 C          1.7077485004       -0.0276735789        0.9703896498
 C          2.7729920306       -0.8482820187        0.3701341599
 C          3.1619460605       -0.5981516787       -0.8934475302
 C          4.1741896306       -1.2925368485       -1.7806297502
 C          5.1981484608       -2.2589786283       -1.1905844801
 C          6.2364239807       -1.6125758580       -0.2741909502
 H          6.8509821109       -2.4059812678        0.1566617398
 H          6.8881215606       -0.9786170779       -0.8806347703
 C          5.6744731306       -0.7511117181        0.8538556198
 H          6.5189039305       -0.3586174978        1.4267654897
 H          5.1465716304        0.1062125418        0.4310636297
 C          4.7472241108       -1.4739426182        1.8291270398
 H          4.5577728507       -0.7960688382        2.6657192198
 H          5.2477450510       -2.3601145781        2.2237903699
 C          3.3816875008       -1.8953881385        1.2575844299
 H          3.4445572010       -2.8484838585        0.7370592499
 H          2.6896397809       -2.0273102686        2.0946182999
 H          4.6942595410       -3.0749356883       -0.6806230701
 H          5.7328906109       -2.6984770982       -2.0371253201
 H          3.5859078107       -1.8287558987       -2.5341388901
 H          4.7007584404       -0.4936818984       -2.3128387802
 O          2.5879532403        0.3923795812       -1.6362994402
 C          1.6057104801        1.2304865610       -1.1285390402
 O          1.1898660499        2.0701909408       -1.9482438403
 H         -0.9955099696       -0.1494877195       -0.4360615601
 C         -1.5353425998        0.7598642403       -0.6507731901
 C         -1.0774351600        1.9622030205       -0.1276355202
 C         -1.7559390203        3.1275583003       -0.4579521202
 C         -2.8584523803        3.0790066000       -1.2944202102
 C         -3.3202598101        1.8771724899       -1.7983901401
 C         -2.6446518998        0.7048855801       -1.4764025901
 N         -3.0690599495       -0.5376410801       -1.9679359300
 S         -2.8313765992       -1.9220954300       -1.0668111499
 O         -1.4489097791       -2.3302637897       -1.1185893799
 O         -3.7849791690       -2.8657730902       -1.6112038498
 C         -3.3050679593       -1.4832950500        0.5970907401
 C         -4.6337035393       -1.1751739502        0.8193932901
 C         -5.0324437194       -0.7927995903        2.0892112201
 C         -4.0988414793       -0.7202053000        3.1122699901
 C         -2.7711183193       -1.0389246297        2.8756236900
 C         -2.3672091692       -1.4260629897        1.6072372301
 H         -1.3380026692       -1.6739144295        1.3975114700
 H         -2.0380021693       -0.9826498695        3.6646759100
 H         -4.4063178294       -0.4161394700        4.1003085601
 H         -6.0657277894       -0.5496659605        2.2769984801
 H         -5.3317852693       -1.2528913104        0.0019519801
 H         -3.9533670496       -0.5346325303       -2.4532682499
 H         -4.1821328301        1.8435436997       -2.4467620201
 H         -3.3704886205        3.9932308399       -1.5534503302
 H         -1.4120809305        4.0763430104       -0.0806397103
 C          0.1112647700        1.9028277108        0.7995213398
 H         -0.2045592398        1.3365480807        1.6932144398
 C          0.5701115998        3.2657305309        1.2966384897
 C          2.0144922197        3.5425958412        1.5859785696
 C          1.3389512995        4.2180840810        0.4322711196
 H          1.1222454993        5.2733033710        0.5139674896
 H          1.5819485596        3.8957609510       -0.5677038504
 H          2.2601149896        4.1296816413        2.4583253796
 H          2.7277512099        2.7597439514        1.3707881997
 H         -0.1437990503        3.7067150608        1.9853999297
 O          1.2728130005       -0.2998911189        2.1220849199
