  62
        -98.94415903
 C          2.1990685102        0.7667693393       -0.0600959409
 C          2.9061626604        0.1055352301        0.9716189994
 C          3.6978538902       -1.0591543703        0.5597896901
 C          3.6795451199       -1.4570225613       -0.7256970696
 C          4.4136671796       -2.6400549017       -1.2965009889
 C          5.8762682995       -2.3505540321       -1.6610396495
 C          6.8252416899       -2.1968138313       -0.4718052199
 H          6.7173762300       -3.0556966407        0.1914259408
 H          7.8421024698       -2.2176846016       -0.8687380602
 C          6.6344940602       -0.8998592306        0.3269262692
 H          7.6085892003       -0.4463133805        0.5232798885
 H          6.0631940601       -0.1848606811       -0.2695902312
 C          5.9407406305       -1.0824826096        1.6768738495
 H          5.8249812607       -0.0985591192        2.1387058488
 H          6.5681075907       -1.6900858391        2.3328787998
 C          4.5530219805       -1.7314382595        1.5912571404
 H          4.6480840603       -2.7951413097        1.3733739811
 H          4.0595062107       -1.6153724588        2.5596303104
 H          6.2292227793       -3.1825201826       -2.2747177590
 H          5.9109709594       -1.4470682626       -2.2740191102
 H          4.3706214298       -3.4729347412       -0.5939562783
 H          3.8819325294       -2.9247414024       -2.2069468686
 O          2.9492329996       -0.8206508019       -1.6795910999
 C          2.2067892198        0.3131154783       -1.3794789706
 O          1.6071497896        0.8056414176       -2.3525904208
 O          2.8698005608        0.4655855510        2.1801644891
 C          1.3823004903        1.9994516997        0.2791785484
 C         -0.0745725598        1.7786872595       -0.0480424111
 C         -0.8620721499        2.7217364791       -0.6948744016
 C         -2.1974381800        2.4624505689       -0.9520678410
 C         -2.7762576799        1.2667170293       -0.5703378500
 C         -2.0026035798        0.3220652897        0.0918665606
 C         -0.6669728397        0.5866381698        0.3517312800
 H         -0.0659233196       -0.1509305698        0.8707246904
 N         -2.5802769698       -0.9003745499        0.4792412216
 S         -4.0096702395       -0.8550671192        1.3611661220
 O         -4.1098731093        0.3562213114        2.1419887511
 O         -4.0378416294       -2.0996867386        2.0981652530
 C         -5.2838382599       -0.8892102001        0.1183001624
 C         -5.2982118502       -1.9476216907       -0.7688120068
 C         -6.2870150005       -1.9942456414       -1.7384476465
 C         -7.2403975304       -0.9888151214       -1.8026028470
 C         -7.2144732201        0.0651098693       -0.9021194278
 C         -6.2276980898        0.1179641400        0.0701463118
 H         -6.1649068296        0.9197006805        0.7885981712
 H         -7.9568542701        0.8452781893       -0.9535321982
 H         -8.0083508706       -1.0276022019       -2.5589609268
 H         -6.3105443407       -2.8124813019       -2.4401223659
 H         -4.5414226502       -2.7095428407       -0.6825380764
 H         -1.9244758197       -1.5402381997        0.9037358820
 H         -3.8132271900        1.0586150292       -0.7767781295
 H         -2.7951124801        3.2020911586       -1.4624414314
 H         -0.4298036499        3.6594956688       -1.0024919424
 H          1.4684207406        2.1153340605        1.3706485882
 C          1.9762492502        3.2228730691       -0.3874964527
 C          1.8458277205        4.5727073796        0.2504382563
 C          3.1719564604        3.8754950995        0.2367014764
 H          3.9498529103        4.2538268790       -0.4093947941
 H          3.5397373707        3.4545581802        1.1613648367
 H          1.7155516004        5.4340744391       -0.3871464744
 H          1.3155326107        4.6333537804        1.1888761564
 H          1.9484635099        3.1599820183       -1.4695397627
