  62
        -98.93445012
 C         -2.5067369976       -1.3005086723        0.1255890202
 C         -3.3595265939       -0.6811503405        1.0744905926
 C         -4.3358978080        0.2951946963        0.5629070231
 C         -4.3793440418        0.5371789104       -0.7582614861
 C         -5.2522350033        1.5231576216       -1.4842198959
 C         -4.5240797587        2.8665379752       -1.6609985419
 C         -4.6786339760        3.8420091266       -0.4947551524
 H         -4.0159348185        4.6883097465       -0.6897395901
 H         -5.7016199146        4.2237821978       -0.4803381343
 C         -4.3508367521        3.2689629062        0.8865831680
 H         -3.4450133696        2.6624073935        0.8284865799
 H         -4.1359873024        4.1060859387        1.5535573616
 C         -5.4976966944        2.4398624108        1.4837406352
 H         -5.7125721013        2.7948952241        2.4937276735
 H         -6.4015218470        2.6080541296        0.8984893036
 C         -5.2268395880        0.9323956190        1.5940899029
 H         -6.1826788444        0.3979830732        1.6065587698
 H         -4.7387111789        0.7188318510        2.5501082745
 H         -3.4644956316        2.6538465887       -1.8257703402
 H         -4.9025075360        3.3540252295       -2.5618297433
 H         -6.1988738485        1.6533029239       -0.9683952647
 H         -5.4447658400        1.0993753214       -2.4721260318
 O         -3.5494575163       -0.0837058768       -1.6393033506
 C         -2.5912785776       -1.0014181630       -1.2341629090
 O         -1.9074633874       -1.4513975500       -2.1737114641
 O         -3.3058058211       -0.9374251872        2.3072863056
 C         -1.5067066678       -2.3067538492        0.6670657001
 C         -0.1638660909       -1.6723094515        0.9260612245
 C          0.4938202264       -1.8575049292        2.1362604163
 C          1.7371385874       -1.2900224491        2.3556105531
 C          2.3471200436       -0.5259402184        1.3770342137
 C          1.6980831103       -0.3338674390        0.1641879700
 C          0.4526895094       -0.9056277485       -0.0531559605
 H         -0.0415186128       -0.7649088692       -1.0036704638
 N          2.3023490770        0.4511856264       -0.8344834808
 S          3.8752338314        0.0626061499       -1.2816037556
 O          4.0234341531        0.5609056494       -2.6312456782
 O          4.1484991549       -1.3417007337       -1.0803332494
 C          4.8810389474        1.0442108513       -0.1883494529
 C          4.6588138108        2.4068755628       -0.1485745925
 C          5.4389866209        3.1875532060        0.6892515736
 C          6.4244621423        2.5964180232        1.4660936436
 C          6.6374991582        1.2275230262        1.4119227252
 C          5.8596288143        0.4404887783        0.5767222547
 H          5.9845391942       -0.6282369408        0.5060751679
 H          7.4042293366        0.7700511978        2.0162527510
 H          7.0297522720        3.2066665937        2.1176239278
 H          5.2759525766        4.2523503057        0.7342398283
 H          3.8847931795        2.8262960670       -0.7695636078
 H          1.7231353190        0.5624886554       -1.6549060438
 H          3.3151066262       -0.0817779665        1.5418733152
 H          2.2365897988       -1.4422049331        3.3000610326
 H          0.0196196642       -2.4432546922        2.9100222480
 H         -1.9199693231       -2.6102762427        1.6418546637
 C         -1.4043392128       -3.5620511751       -0.1900843301
 C         -0.2029412203       -3.9192232052       -1.0081455491
 C         -0.5164971308       -4.6942082027        0.2344338211
 H         -0.8829059187       -5.7048479777        0.1380365287
 H          0.1189537525       -4.5320605758        1.0919862868
 H         -0.3732192481       -4.3797856272       -1.9695588741
 H          0.6486254242       -3.2561182643       -0.9960321338
 H         -2.3648611357       -3.8342760368       -0.6166928300
