  62
        -98.93901283
 C         -0.7116335122       -1.6937142399        0.5839038331
 C         -1.6169078499       -1.5363782305       -0.4929898658
 C         -2.8012808330       -0.7066629081       -0.2223755982
 C         -2.9632049019       -0.1471742939        0.9891747825
 C         -4.1564470603        0.6358612925        1.4739968339
 C         -4.4517212920        1.9741180250        0.7706285672
 C         -5.4298462809        1.8745443412       -0.4057477596
 H         -6.0560118954        0.9918200067       -0.2710741454
 H         -6.0977519213        2.7380624375       -0.3811301878
 C         -4.7896925904        1.8429785069       -1.7966315985
 H         -5.5580268517        1.5384246208       -2.5105408515
 H         -4.4737655446        2.8528846664       -2.0672319436
 C         -3.5779852138        0.9232906959       -1.9510769002
 H         -2.7022734486        1.3778094572       -1.4825356659
 H         -3.3489198890        0.8372114034       -3.0149070440
 C         -3.7637211726       -0.4838736962       -1.3522970426
 H         -3.5395543864       -1.2427780704       -2.1044980263
 H         -4.7893246812       -0.6282042940       -1.0153435061
 H         -3.5179287556        2.4279793956        0.4450288593
 H         -4.8897455802        2.6325493941        1.5226881478
 H         -5.0382614396       -0.0062360146        1.4085080570
 H         -3.9658002405        0.8259104540        2.5326978727
 O         -2.0409803396       -0.2854088351        1.9836316806
 C         -0.9011392434       -1.0502129083        1.8075189735
 O         -0.1490276335       -1.0837624315        2.8035813528
 O         -1.4702437962       -2.0785654017       -1.6180719036
 C          0.5170570120       -2.5788998481        0.4483231687
 C          1.4684992760       -1.9750233523       -0.5555689315
 C          1.6000924661       -2.4391848088       -1.8578329442
 C          2.4741678555       -1.8190342285       -2.7333173528
 C          3.2327401127       -0.7357687762       -2.3303855639
 C          3.1161563189       -0.2695105430       -1.0246678938
 C          2.2346170273       -0.8876019891       -0.1514114311
 H          2.1535705187       -0.5307722073        0.8648203154
 N          3.9075735874        0.7996574166       -0.5854808833
 S          3.4373085369        1.8240717830        0.6382332085
 O          4.3272732070        2.9574446162        0.5005540398
 O          3.4755687817        1.1443820015        1.9076273909
 C          1.7776706734        2.3440631676        0.2457026767
 C          1.5916008326        3.0864831411       -0.9046501488
 C          0.3214615945        3.5439265929       -1.2113017206
 C         -0.7363058724        3.2604500227       -0.3605595894
 C         -0.5343747088        2.5124188638        0.7882369077
 C          0.7335275414        2.0433925536        1.0945194939
 H          0.9184071487        1.4520607333        1.9785161721
 H         -1.3512743938        2.2858559648        1.4554157094
 H         -1.7216060618        3.6351675604       -0.5923747435
 H          0.1584884043        4.1244875731       -2.1048929215
 H          2.4416751976        3.3110056505       -1.5278826661
 H          4.4417735362        1.2681292421       -1.3013009683
 H          3.9178292354       -0.2575816932       -3.0133705966
 H          2.5646530450       -2.1845544856       -3.7448510775
 H          1.0070497231       -3.2740092167       -2.1905448589
 H          1.0111804611       -2.5563416187        1.4298328074
 C          0.1266678910       -4.0087364026        0.1344904527
 C          1.1203430751       -5.1077924580        0.3552709577
 C         -0.0662146912       -4.9763534692        1.2612229162
 H         -0.8585803075       -5.7058435118        1.1843162411
 H          0.0936861717       -4.6115999432        2.2658132210
 H          1.1447950139       -5.9308207164       -0.3423491346
 H          2.0885998000       -4.8319851893        0.7454943725
 H         -0.5471734142       -4.0930436442       -0.7088756667
