  62
        -98.94388831
 C          0.7053988486        2.0821624558       -0.4861421162
 C         -0.0327383624        2.2331731349        0.7161928188
 C         -1.4969415212        2.3016634140        0.5579078401
 C         -2.0527809799        2.2403866333       -0.6644622793
 C         -3.5165231707        2.3738060705       -0.9891510896
 C         -4.3330640555        1.0839241265       -0.8356631054
 C         -4.5946890925        0.6503755349        0.6068858390
 H         -4.9998888204        1.4892259732        1.1736768834
 H         -5.3623542783       -0.1251581903        0.5772834374
 C         -3.3582366481        0.0902985716        1.3218854324
 H         -2.6034732041       -0.1850628445        0.5828766340
 H         -3.6194465894       -0.8286818369        1.8526533202
 C         -2.7181211968        1.0271887570        2.3462131633
 H         -1.8150154026        0.5367527059        2.7200732805
 H         -3.3985180604        1.1702373119        3.1894952802
 C         -2.3284608595        2.4069721087        1.8001687810
 H         -3.2233778585        3.0007058014        1.6094466125
 H         -1.7264083169        2.9139077426        2.5588697379
 H         -3.8242101387        0.2768165267       -1.3673560481
 H         -5.2963291043        1.2514423718       -1.3228123533
 H         -3.5701481134        2.6921207463       -2.0326595374
 H         -3.9539761606        3.1553108819       -0.3664942994
 O         -1.3090572176        2.0917432509       -1.7935850477
 C          0.0711480855        1.9899602406       -1.7285682946
 O          0.6209455198        1.8325913984       -2.8368480702
 O          0.4758834206        2.3332824773        1.8604988315
 C          2.2209640464        1.9584716504       -0.5457390223
 C          2.6104071069        0.5016045403       -0.5836201449
 C          3.5007008624        0.0238709943       -1.5377972404
 C          3.8198605824       -1.3212575820       -1.5896103542
 C          3.2381068945       -2.2154830317       -0.7094784645
 C          2.3438065889       -1.7493011027        0.2482731910
 C          2.0539089482       -0.3939471281        0.3197179901
 H          1.3766406555       -0.0390430608        1.0819898289
 N          1.7321976773       -2.6396055651        1.1467696350
 S          0.0898035465       -2.5403747462        1.4515998650
 O         -0.2103659969       -1.3331859348        2.1716378028
 O         -0.2192018809       -3.7825882026        2.1260270521
 C         -0.6851762928       -2.5356482729       -0.1555751515
 C         -1.1336432274       -3.7350685135       -0.6740200105
 C         -1.7036144824       -3.7515512038       -1.9365272897
 C         -1.8042036381       -2.5752103812       -2.6643404120
 C         -1.3445997510       -1.3797491436       -2.1341478376
 C         -0.7832601247       -1.3563567865       -0.8667355994
 H         -0.4229370234       -0.4358612230       -0.4340098126
 H         -1.4080135846       -0.4607531766       -2.6973305945
 H         -2.2429049844       -2.5856346125       -3.6496191076
 H         -2.0649361475       -4.6788911606       -2.3508146692
 H         -1.0397205640       -4.6239161851       -0.0714109054
 H          2.0060326466       -3.6040759209        1.0241585597
 H          3.4705894941       -3.2682310171       -0.7610660111
 H          4.5143846662       -1.6803196868       -2.3334981224
 H          3.9288408397        0.7120963968       -2.2513707286
 H          2.5101977843        2.3957376694       -1.5156303064
 C          2.9502742180        2.7434297306        0.5335523459
 C          3.6247168818        2.1039252755        1.7057766710
 C          4.4483322258        2.6963837594        0.6041867539
 H          4.9859846593        3.6128737741        0.7940655852
 H          4.9565246871        2.0130813361       -0.0595286847
 H          3.5686754496        2.6175133212        2.6534583597
 H          3.5844866946        1.0294246476        1.7965786990
 H          2.4847572343        3.7059810948        0.7171788016
