  62
        -98.94493444
 C          2.2074311103        0.9929235707        0.5361103808
 C          2.2916398402        0.1425945408       -0.5932534992
 C          3.0718777599       -1.0874575995       -0.4055259891
 C          3.6163234496       -1.3600476796        0.7941870209
 C          4.4188116392       -2.5833987599        1.1463752410
 C          5.9018815793       -2.4916157802        0.7611611513
 C          6.1937775895       -2.5949641003       -0.7363504087
 H          7.2708184895       -2.7380443406       -0.8431577385
 H          5.7058951694       -3.4827950001       -1.1398496388
 C          5.7767627500       -1.3615965502       -1.5496014787
 H          5.6203604101       -0.5164538001       -0.8754241787
 H          6.5847406402       -1.0835941404       -2.2298854786
 C          4.5189106401       -1.5567176798       -2.3963148089
 H          4.7061635200       -2.3102077398       -3.1645171189
 H          4.2922808804       -0.6127939297       -2.8983083089
 C          3.2789971098       -1.9750831795       -1.5952584591
 H          2.4008747900       -1.8752161292       -2.2387243093
 H          3.3648168095       -3.0161803295       -1.2837704191
 H          6.3052805495       -1.5527684404        1.1473010114
 H          6.4196673990       -3.3094031604        1.2676219513
 H          4.3512477090       -2.6974288399        2.2305651810
 H          3.9726247191       -3.4609895397        0.6771425309
 O          3.4730525597       -0.5367223196        1.8676328009
 C          2.7785476700        0.6588993206        1.7629693209
 O          2.7298291900        1.3189754006        2.8215883009
 H         -0.1598227600        0.4844377514        1.5287469704
 C         -0.6745767797        1.0254046715        0.7428704403
 C          0.0061225606        2.0225305713        0.0546900505
 C         -0.6650585490        2.7085874216       -0.9483507296
 C         -1.9750536790        2.3873741719       -1.2606397398
 C         -2.6447104794        1.3881016821       -0.5792750000
 C         -1.9849569698        0.7000310219        0.4308637201
 N         -2.6612865401       -0.3096942080        1.1406452400
 S         -3.3988325703       -1.5310243877        0.2511514498
 O         -3.4425692508       -2.6704008078        1.1425751998
 O         -2.7462160102       -1.7345800379       -1.0211908701
 C         -5.0567110501       -0.9301137173        0.0024528196
 C         -5.5596377599       -0.8048285471       -1.2776682305
 C         -6.8564164798       -0.3440706868       -1.4456783107
 C         -7.6227680798       -0.0195984766       -0.3367748608
 C         -7.1033377601       -0.1532615268        0.9424108893
 C         -5.8084611502       -0.6144437571        1.1173718695
 H         -5.3686152804       -0.7379465673        2.0928893996
 H         -7.7023818201        0.0995827134        1.8023315792
 H         -8.6311019897        0.3391756237       -0.4701983409
 H         -7.2618816496       -0.2402190766       -2.4392869907
 H         -4.9244875498       -1.0649544373       -2.1095938804
 H         -2.1118913204       -0.7099782181        1.8878618101
 H         -3.6621988495        1.1306965324       -0.8241693501
 H         -2.4814423688        2.9231659221       -2.0489244599
 H         -0.1592735387        3.4871409714       -1.4951087695
 C          1.4392555007        2.2992045610        0.4416790307
 H          1.4419757506        2.7284527909        1.4544775907
 C          2.1483576711        3.2544794108       -0.4954134992
 C          2.0246861914        4.7349328408       -0.3005128192
 C          3.3131524712        4.0415960305        0.0225448510
 H          4.1616347313        4.1956926003       -0.6271239788
 H          3.5785095210        3.9070561504        1.0613843311
 H          1.9916341417        5.3691415308       -1.1734453991
 H          1.4172060514        5.0817833310        0.5215658708
 H          2.2133715411        2.8716495608       -1.5074659792
 O          1.7451888205        0.3939359009       -1.6981844293
