  62
        -98.93288349
 C          1.9127250906        1.4172801476       -0.4217429049
 C          2.8611663773        1.2629125455        0.6198462765
 C          4.0449856067        0.4256989004        0.3525121002
 C          4.1619024060       -0.1491338150       -0.8584425219
 C          5.2391448360       -1.0787509442       -1.3513319422
 C          5.0931072351       -2.5023412818       -0.7904913553
 C          4.7791210027       -2.5763772240        0.7015481136
 H          4.5981874873       -3.6255985667        0.9501228668
 H          3.8525830712       -2.0338904330        0.8996449496
 C          5.8799223770       -2.0599555397        1.6252504298
 H          6.7946296524       -2.6288557938        1.4443322978
 H          5.5611727934       -2.2609459989        2.6512040852
 C          6.2040810841       -0.5685526007        1.5135762898
 H          6.8161974923       -0.3639275354        0.6393067378
 H          6.8087151529       -0.3015418076        2.3852115139
 C          4.9869124152        0.3506899781        1.5299857434
 H          5.3286152936        1.3790670900        1.6986000363
 H          4.3647722014        0.1087892747        2.3991440323
 H          6.0126526060       -3.0516624714       -0.9997916802
 H          4.2769734706       -2.9937847082       -1.3263407183
 H          6.2190688728       -0.6705977566       -1.1221107545
 H          5.1420902039       -1.1219714496       -2.4384951764
 O          3.2286101391        0.0280368843       -1.8348623669
 C          2.0852573413        0.7975682633       -1.6591936707
 O          1.3587845274        0.8402732379       -2.6677215535
 O          2.7239681357        1.8123972871        1.7467063053
 C          0.6934449635        2.2549305223       -0.0783163477
 C         -0.2828246885        1.4290310453        0.7218887663
 C         -0.8141002674        1.9191277434        1.9099540416
 C         -1.6872975960        1.1558847245        2.6637886236
 C         -2.0648062768       -0.1024146902        2.2316772908
 C         -1.5446011024       -0.5995934364        1.0424940570
 C         -0.6507852739        0.1582409328        0.2999517133
 H         -0.2457472295       -0.2488348837       -0.6151555141
 N         -1.9335550824       -1.8681913237        0.5525272500
 S         -2.9645579272       -1.8248392917       -0.7699360295
 O         -3.3283948548       -3.2007834887       -1.0249177091
 O         -2.3401435361       -1.1028788442       -1.8456610764
 C         -4.3851086566       -0.9279348690       -0.1655967108
 C         -5.4477096775       -1.6332928563        0.3649447539
 C         -6.5124907286       -0.9331447425        0.9091837615
 C         -6.4901995742        0.4533547583        0.9248250537
 C         -5.4147173932        1.1468290896        0.3910556414
 C         -4.3489489623        0.4524601012       -0.1595056363
 H         -3.4992561483        0.9579222495       -0.5895487152
 H         -5.3975181722        2.2246549518        0.4016671658
 H         -7.3166469023        0.9978587030        1.3534148800
 H         -7.3519059155       -1.4696567699        1.3212880640
 H         -5.4221941461       -2.7105090728        0.3281177622
 H         -2.3422929625       -2.4620426644        1.2621656290
 H         -2.7501806306       -0.7023180085        2.8116933138
 H         -2.0812492083        1.5451018901        3.5897268818
 H         -0.5174605302        2.8997058777        2.2512588964
 H          1.0696799136        3.0438911519        0.5939440721
 C          0.0440325623        2.9545604303       -1.2605904508
 C         -1.1293898292        2.4070409314       -2.0094449021
 C         -1.3077505926        3.5894862166       -1.1078130354
 H         -1.4775382723        4.5566013392       -1.5560657980
 H         -1.8258375924        3.4353502975       -0.1729527689
 H         -1.1461015123        2.5571643657       -3.0784150880
 H         -1.5254993407        1.4456910811       -1.7206909889
 H          0.7752137667        3.4936614952       -1.8546841358
