  62
        -98.94447586
 C          1.8528271716        1.0607342902       -0.1684640443
 C          2.3745113148       -0.0611974835       -0.8563938632
 C          3.8366424795       -0.1965687876       -0.8306674523
 C          4.5857206669        0.7341791849       -0.2119380648
 C          6.0877073767        0.7454282902       -0.1218298225
 C          6.6499272398       -0.1104507605        1.0215611077
 C          6.5584324636       -1.6221579202        0.8093541284
 H          6.9895830750       -1.8789707362       -0.1587465040
 H          7.1778461662       -2.0913131764        1.5763870099
 C          5.1358365320       -2.1906596217        0.9086836715
 H          5.1450848948       -3.0895298244        1.5292279102
 H          4.4869438303       -1.4658991778        1.4056222790
 C          4.5106419344       -2.5733755094       -0.4329364722
 H          3.4917297641       -2.9242759633       -0.2490631684
 H          5.0748661876       -3.3952371816       -0.8794582092
 C          4.4377825377       -1.4236136373       -1.4463190817
 H          3.7899291229       -1.7331591162       -2.2702176020
 H          5.4294993025       -1.2069762787       -1.8429019623
 H          6.1340739197        0.1595018720        1.9458999789
 H          7.7030596725        0.1549041062        1.1392673787
 H          6.5142905405        0.4151646900       -1.0692930885
 H          6.3810966162        1.7834642644        0.0488795542
 O          4.0449364605        1.8164554718        0.4088900534
 C          2.6717077138        1.9934188437        0.4673855014
 O          2.3091951404        3.0036115784        1.1037625218
 O          1.6621166459       -0.9055380307       -1.4592173699
 C          0.3516232216        1.2824720422       -0.1156940794
 C         -0.3296416567        0.0598449063        0.4478601159
 C          0.1649997236       -0.4977276590        1.6251469043
 C         -0.4057328218       -1.6323119359        2.1658457686
 C         -1.4947605490       -2.2282448186        1.5534715559
 C         -2.0054254981       -1.6728463542        0.3875879480
 C         -1.4300258719       -0.5295255014       -0.1535904462
 H         -1.8379508733       -0.1323191665       -1.0676414267
 N         -3.1053072093       -2.2578980915       -0.2559899445
 S         -4.2785425969       -1.2971626122       -0.9503355603
 O         -5.4552456570       -2.1391095327       -0.9913907037
 O         -3.8320560470       -0.7825087457       -2.2198067859
 C         -4.5290723054        0.0429901655        0.2014712328
 C         -4.4190890649        1.3470153848       -0.2334331604
 C         -4.6112338004        2.3767356762        0.6740999157
 C         -4.9061960013        2.0848242693        1.9963394719
 C         -5.0186238663        0.7684728881        2.4176996745
 C         -4.8306312038       -0.2641042912        1.5139198054
 H         -4.9219444354       -1.2962281397        1.8102724170
 H         -5.2506849004        0.5451515649        3.4465392869
 H         -5.0505538989        2.8877545778        2.7019228857
 H         -4.5282114655        3.4007533102        0.3459986247
 H         -4.1830930395        1.5299792655       -1.2689002299
 H         -3.5003128736       -3.0583594141        0.2143829134
 H         -1.9365158637       -3.1219543577        1.9671331697
 H         -0.0018139898       -2.0579962089        3.0720385315
 H          1.0178320590       -0.0333990543        2.1020072916
 H          0.1903603751        2.1187862799        0.5803206208
 C         -0.1539046476        1.6851569510       -1.4851730306
 C         -1.3400867081        2.5896797024       -1.6198568525
 C          0.0324440273        3.1023517098       -1.9342174944
 H          0.2937515402        3.2869470525       -2.9654652556
 H          0.4981657281        3.7836734691       -1.2368625538
 H         -2.0226056965        2.4191457415       -2.4392548360
 H         -1.8112472356        2.9312365386       -0.7107926871
 H         -0.0185205703        0.9052920035       -2.2264589695
