  62
        -98.92745287
 C          1.9300283737        0.8607613555        0.1868668407
 C          2.2030027992       -0.2165100821        1.0597271396
 C          2.3813439689       -1.5385567421        0.4404702259
 C          2.2549590716       -1.6609588277       -0.8918869851
 C          2.3463885804       -2.9111957976       -1.7313571221
 C          3.4652541780       -3.9088391681       -1.4005954320
 C          4.7631035460       -3.2782535013       -0.8747398355
 H          5.6042258123       -3.6624618456       -1.4545759443
 H          4.7358958038       -2.1964366986       -1.0154607949
 C          5.0257325366       -3.5945897088        0.5995840737
 H          4.7972634722       -4.6474944198        0.7777132010
 H          6.0888626005       -3.4504946466        0.8060130106
 C          4.2513085824       -2.7396132453        1.6021428241
 H          4.6371373945       -1.7166086653        1.5943854564
 H          4.4332761277       -3.1427357111        2.6012335431
 C          2.7327980964       -2.6622663824        1.3728429755
 H          2.3354745937       -3.6124682149        1.0235380330
 H          2.2575946492       -2.4190880783        2.3275525443
 H          3.1026281622       -4.6335982453       -0.6730790696
 H          3.6744187459       -4.4617609223       -2.3178694145
 H          1.3793151701       -3.4202896488       -1.6784012789
 H          2.4646497176       -2.5541745593       -2.7573059033
 O          1.9818905308       -0.5968373426       -1.6970879710
 C          1.7990648687        0.6796162830       -1.1893241613
 O          1.5445114729        1.5390089558       -2.0528845545
 H         -0.5464470999        1.0161546983        1.1209364421
 C         -0.7075364739        1.9118045815        0.5362260565
 C          0.3733886026        2.7458133314        0.2531625334
 C          0.1253278685        3.8859695057       -0.4987089708
 C         -1.1513199658        4.1601032911       -0.9637643141
 C         -2.2051590776        3.3038244144       -0.7156184393
 C         -1.9741575183        2.1611377320        0.0426340417
 N         -3.0137255682        1.2571163718        0.3300384403
 S         -2.6249936987       -0.3872857240        0.3677131063
 O         -2.1410642255       -0.7172122202        1.6857635173
 O         -1.7621304186       -0.7303854310       -0.7408307718
 C         -4.2465974042       -1.0948440417        0.1381432722
 C         -4.6383601001       -1.5015682563       -1.1231560527
 C         -5.9151599802       -2.0130323157       -1.2962964308
 C         -6.7750571481       -2.1041196672       -0.2121235970
 C         -6.3675342722       -1.6919336315        1.0480843081
 C         -5.0919841439       -1.1811322948        1.2283724293
 H         -4.7264483045       -0.8561419001        2.1884285927
 H         -7.0376971398       -1.7663865180        1.8891196376
 H         -7.7682748314       -2.5011315079       -0.3500407353
 H         -6.2329865021       -2.3368068894       -2.2742698258
 H         -3.9322072320       -1.4173890553       -1.9339305643
 H         -3.8375181222        1.4243671800       -0.2324310814
 H         -3.1904577725        3.5081436943       -1.1060371241
 H         -1.3172572118        5.0495568874       -1.5528298599
 H          0.9169845006        4.5621166249       -0.7640721376
 C          1.6924824797        2.2420674452        0.7872398883
 H          1.5401786786        2.0493258407        1.8636485352
 C          2.9767036551        3.0508828892        0.6955781674
 C          3.4344672481        3.8186650365       -0.5046773748
 C          3.0748545649        4.5452181769        0.7587802359
 H          3.8811961135        4.9665763045        1.3410048669
 H          2.1660724348        5.1222186094        0.7996563117
 H          4.4791951553        3.7507995136       -0.7728387477
 H          2.7789629738        3.8543029717       -1.3594302161
 H          3.7588756154        2.5108333006        1.2259652790
 O          2.2872636182       -0.0795463180        2.3120866119
