  62
        -98.94360867
 C          1.8264239003        0.3109969949       -0.2909622341
 C          2.9754286805        0.5653179987       -1.0765644783
 C          4.2509380921        0.5926845238       -0.3521903268
 C          4.2651463845        0.4074569846        0.9806794644
 C          5.4825285113        0.4405806058        1.8646808837
 C          6.2534198828       -0.8854861266        1.9194800374
 C          7.0429117749       -1.2321446302        0.6565583694
 H          7.7022127900       -2.0649283109        0.9093613987
 H          7.6762841947       -0.3880090908        0.3819600310
 C          6.1734227285       -1.6374916505       -0.5418147595
 H          5.1699035654       -1.8927987285       -0.1940410940
 H          6.5888014234       -2.5344518802       -1.0066693167
 C          6.0619265161       -0.5725973265       -1.6328587771
 H          5.3952404670       -0.9492039108       -2.4128374901
 H          7.0430873657       -0.4033252986       -2.0820926926
 C          5.5090407236        0.7735393308       -1.1468032112
 H          5.2644933764        1.3801979704       -2.0223654575
 H          6.2607320056        1.2981305842       -0.5572543960
 H          5.5487331526       -1.6901629633        2.1410198187
 H          6.9554527366       -0.8192743863        2.7538704812
 H          5.1283528469        0.6745330628        2.8709256532
 H          6.1508982834        1.2377784255        1.5378562693
 O          3.1348025714        0.1844333348        1.7026446606
 C          1.8921809071        0.1147614758        1.0886448055
 O          0.9474401103       -0.1166206926        1.8657501315
 O          2.9353222375        0.7699894416       -2.3200447383
 C          0.4698120462        0.2571332525       -0.9675327934
 C         -0.4623050152        1.2864005772       -0.3775128598
 C          0.0134212598        2.5725777685       -0.1335145367
 C         -0.8098764188        3.5404308185        0.4065658291
 C         -2.1321882192        3.2537659242        0.6975327001
 C         -2.6224742266        1.9795418157        0.4436312708
 C         -1.7880605446        1.0046597102       -0.0875374194
 H         -2.1886558391        0.0230883962       -0.2771017254
 N         -3.9533202635        1.6535463849        0.7391702624
 S         -4.8272687888        0.6550486205       -0.2763890387
 O         -4.4528925433        0.8378294162       -1.6592202455
 O         -6.2113513939        0.9331289120        0.0451920242
 C         -4.4398439184       -0.9998222054        0.2533436801
 C         -4.2561799832       -1.2529938763        1.5980944028
 C         -3.9985236244       -2.5525272802        2.0043031096
 C         -3.9382479333       -3.5727089061        1.0670868891
 C         -4.1316034230       -3.3031443461       -0.2787954872
 C         -4.3850753624       -2.0045463491       -0.6923635952
 H         -4.5297935153       -1.7480656389       -1.7299047655
 H         -4.0842361282       -4.0977218390       -1.0066747119
 H         -3.7377305557       -4.5830867271        1.3871534684
 H         -3.8436226435       -2.7650474533        3.0498823063
 H         -4.3046395725       -0.4376692292        2.3003905104
 H         -4.5133346469        2.4140204687        1.0953945684
 H         -2.7777004016        4.0093729351        1.1189141796
 H         -0.4223149768        4.5299483497        0.5977053249
 H          1.0442076751        2.8018301211       -0.3676470217
 H          0.6548730211        0.5314997239       -2.0175542430
 C         -0.0803930705       -1.1533980586       -0.9240782946
 C         -0.9856883398       -1.6504960672       -2.0099410820
 C          0.4219673015       -2.1555191930       -1.9183168350
 H          0.5857562908       -3.1708244798       -1.5901871199
 H          1.1395405576       -1.8109106133       -2.6486948737
 H         -1.7882704604       -2.3202503387       -1.7405373063
 H         -1.2337858732       -0.9662678662       -2.8076219076
 H         -0.2591335811       -1.4972604292        0.0888532519
