  62
        -98.93760814
 C          1.3085538669       -0.9587749540        0.5798950682
 C          2.3737979531       -1.3077067605       -0.2858510828
 C          3.3554487453       -0.2573948073       -0.6021645495
 C          3.1764160200        0.9719050182       -0.0894775835
 C          4.0677766807        2.1725647720       -0.2506499587
 C          5.0715137292        2.2667157155        0.9110317897
 C          6.3683995873        1.4844127100        0.7067233591
 H          6.9710126150        1.9830402653       -0.0553149292
 H          6.9251911764        1.5282378230        1.6455747409
 C          6.1916127907        0.0170115735        0.3076453524
 H          5.3942919409       -0.4324448851        0.9022302053
 H          7.1153726332       -0.5103774437        0.5531373770
 C          5.8950023346       -0.1707295364       -1.1877239065
 H          6.0865617938        0.7665309349       -1.7099531813
 H          6.5879166947       -0.9044083300       -1.6049123009
 C          4.4783532334       -0.6638453975       -1.5171306036
 H          4.2222463425       -0.3605753405       -2.5382548262
 H          4.4608571882       -1.7584180616       -1.5053231747
 H          4.5682683945        1.9169757242        1.8161078910
 H          5.3302053300        3.3161886268        1.0659939988
 H          4.5756865923        2.1488519393       -1.2103464698
 H          3.4149155718        3.0479485010       -0.2222283803
 O          2.1342960607        1.2738328350        0.7286280119
 C          1.1706828809        0.3365364546        1.0813848632
 O          0.2928688102        0.7898381606        1.8356854347
 H         -0.9210566364        0.0108328834       -0.3904028402
 C         -1.2699392758       -0.9434139809       -0.7521666925
 C         -0.7421398285       -2.1128611497       -0.2238275128
 C         -1.1859203417       -3.3323763905       -0.7221368430
 C         -2.1399896966       -3.3757530062       -1.7233126563
 C         -2.6645538276       -2.2085694384       -2.2474837161
 C         -2.2165061412       -0.9823519026       -1.7658258618
 N         -2.6994892651        0.2105881604       -2.3079279512
 S         -2.5770691541        1.6824472444       -1.5429388972
 O         -3.4715507111        2.5333255490       -2.3018320973
 O         -1.2020290690        2.1137255607       -1.4889709350
 C         -3.2498849925        1.4479758382        0.0909344679
 C         -4.4760687779        0.8211730730        0.2064945748
 C         -5.0306770983        0.6600911516        1.4650097950
 C         -4.3570132813        1.1328593104        2.5814225231
 C         -3.1311871971        1.7641727313        2.4473431109
 C         -2.5683774809        1.9242885708        1.1906443180
 H         -1.6021731624        2.3834239850        1.0575979496
 H         -2.5970845526        2.1254659266        3.3112056469
 H         -4.7889600068        1.0063463649        3.5616304356
 H         -5.9832066701        0.1667934958        1.5725245450
 H         -4.9793373079        0.4737173525       -0.6808976106
 H         -3.4709908458        0.1403783920       -2.9521630003
 H         -3.4007384600       -2.2402417869       -3.0355937247
 H         -2.4763294118       -4.3281555307       -2.1035003678
 H         -0.7629061461       -4.2476777921       -0.3355549427
 C          0.2956756194       -2.0516909061        0.8697191030
 H          0.8690446171       -2.9921254831        0.8248735606
 C         -0.3276254811       -1.9624059440        2.2548576792
 C         -1.7281920781       -1.4927064864        2.4926830506
 C         -1.3860396786       -2.9389624210        2.6758779422
 H         -1.3462194478       -3.3384060803        3.6777770670
 H         -1.7487255904       -3.6344769008        1.9349297308
 H         -1.9088677288       -0.8805741725        3.3620917497
 H         -2.3204652376       -1.2076150375        1.6368426443
 H          0.4040002198       -1.6845254532        3.0062985577
 O          2.5062801393       -2.4667460699       -0.7675374925
