  62
        -98.93440973
 C         -1.6554792204       -0.1081651998        0.2152980599
 C         -2.6569935306       -0.6417146505       -0.6383668496
 C         -3.8709497005        0.1757682595       -0.7951095503
 C         -3.9496090003        1.3922162400       -0.2313569214
 C         -5.1135415902        2.3409281401       -0.3173399023
 C         -6.2162738101        2.0625767812        0.7134972380
 C         -7.0599118203        0.8154217611        0.4449583293
 H         -7.9220669203        0.8625219118        1.1132945393
 H         -7.4388670404        0.8471165902       -0.5770295307
 C         -6.3250052105       -0.5114723888        0.6822935705
 H         -6.9662225305       -1.1858832582        1.2545484312
 H         -5.4335464904       -0.3303124683        1.2879226303
 C         -5.9177110106       -1.2483006501       -0.5940826688
 H         -5.3727789507       -2.1521408198       -0.3087937180
 H         -6.8123093007       -1.5546652605       -1.1407073785
 C         -5.0238823006       -0.4313982011       -1.5362500596
 H         -4.6172599107       -1.1053676318       -2.2941153990
 H         -5.6084952105        0.3424044085       -2.0328625504
 H         -5.7585148301        1.9862099121        1.7027091581
 H         -6.8812570400        2.9292891613        0.7219030572
 H         -5.5371411702        2.3144936092       -1.3216703722
 H         -4.7147345000        3.3408349902       -0.1335618533
 O         -2.9266885102        1.9185915306        0.4917555180
 C         -1.7919347903        1.1763243107        0.7617307787
 O         -0.9686862901        1.7725334613        1.4871006781
 O         -2.5772488107       -1.7309989411       -1.2617298785
 C         -0.3854005205       -0.8192769296        0.6473928305
 C          0.6608684194       -1.0388973707       -0.4238981393
 C          0.3932753593       -1.0685934920       -1.7852827893
 C          1.4162983693       -1.2704160830       -2.6967944492
 C          2.7240000193       -1.4229372027       -2.2760804491
 C          3.0055910793       -1.3926457215       -0.9147463091
 C          1.9756487194       -1.2118944205       -0.0054295592
 H          2.2134266995       -1.2012113495        1.0468954807
 N          4.3220983493       -1.5390714412       -0.4464522790
 S          4.8877880395       -0.5281119301        0.7611355500
 O          6.3261862295       -0.6578810804        0.6959186700
 O          4.2754735895       -0.8715126688        2.0190612303
 C          4.3980383597        1.1070304395        0.2444956984
 C          5.1776008597        1.7474209085       -0.6998756722
 C          4.7814488099        2.9892599281       -1.1673561134
 C          3.6089104600        3.5621436087       -0.6967720139
 C          2.8372230699        2.9077331797        0.2505168668
 C          3.2354353398        1.6696627601        0.7301233879
 H          2.6558370798        1.1486487608        1.4743244285
 H          1.9200707900        3.3414482001        0.6180783864
 H          3.2949188201        4.5255491483       -1.0666087548
 H          5.3826187399        3.5052272573       -1.8985785239
 H          6.0848890197        1.2712972580       -1.0349343218
 H          5.0122166893       -1.6493298120       -1.1753968890
 H          3.5193365092       -1.5686456635       -2.9908488090
 H          1.1885144192       -1.2983218440       -3.7516251091
 H         -0.6189824107       -0.9544729422       -2.1350165894
 H          0.0667722996       -0.1138240989        1.3635475598
 C         -0.5718072806       -2.1192930488        1.4338114217
 C         -1.8927828207       -2.5617167881        1.9829196422
 C         -1.2391922208       -3.3401468292        0.8814279229
 H         -0.8095679509       -4.3036724591        1.1145564338
 H         -1.6730249409       -3.2684039401       -0.1025035971
 H         -1.9225478107       -2.9806178872        2.9782235526
 H         -2.7639172006       -1.9743255782        1.7300173817
 H          0.2862492094       -2.3103496483        2.0724486619
