  62
        -98.93337002
 C          2.1083693183       -1.2418534773        0.2122642710
 C          2.4216905427        0.0322687655        0.7468352611
 C          3.8421332496        0.4178031282        0.6829571534
 C          4.7421598573       -0.4370816852        0.1664118071
 C          6.2063284405       -0.1511054359        0.0031310378
 C          6.5028739019        0.4635755735       -1.3718888611
 C          5.5882398943        1.6331627954       -1.7357872363
 H          5.9095597812        2.0060405328       -2.7107191799
 H          4.5666442671        1.2643812511       -1.8531636000
 C          5.5957766576        2.7845889664       -0.7206549503
 H          6.4797453591        2.7134694218       -0.0858766714
 H          5.6619366836        3.7298047650       -1.2635533256
 C          4.3463304174        2.8631987321        0.1588052346
 H          3.4522689627        2.8403821620       -0.4697029464
 H          4.3560396551        3.8253329819        0.6780619985
 C          4.2115332232        1.7696316699        1.2259507772
 H          3.3943475685        2.0568524974        1.8942870435
 H          5.1305933640        1.7122675888        1.8128435483
 H          6.3838560111       -0.3129398424       -2.1309703346
 H          7.5428282387        0.7947606455       -1.3846150983
 H          6.5291288458        0.5248178039        0.7925551116
 H          6.7523742300       -1.0913475951        0.0964232696
 O          4.4054235335       -1.6603242083       -0.3167265354
 C          3.0889760692       -2.0844922040       -0.3170103269
 O          2.9168924403       -3.2186054582       -0.8089968297
 O          1.5804318620        0.8177912861        1.2515291012
 C          0.6831288233       -1.7882193539        0.1964906212
 C         -0.2347853652       -0.7762868732       -0.4400875884
 C         -0.2112131150       -0.7146937024       -1.8349787439
 C         -0.9679046978        0.2072872610       -2.5299718798
 C         -1.7968186135        1.0815684840       -1.8486436398
 C         -1.8305963212        1.0325533564       -0.4624051659
 C         -1.0453953185        0.1224399500        0.2351798190
 H         -1.0805467188        0.1588508142        1.3078978471
 N         -2.6778873977        1.8919420591        0.2711557886
 S         -3.9251492499        1.1651477792        1.1166729595
 O         -4.7457239430        2.2500341955        1.6058115354
 O         -3.3888132335        0.2631862330        2.1005529920
 C         -4.8181642593        0.2464727971       -0.1268199300
 C         -5.9286066304        0.8183476119       -0.7162509121
 C         -6.5793284097        0.1325420830       -1.7292832176
 C         -6.1029786372       -1.1025167101       -2.1422186597
 C         -4.9840979914       -1.6616352617       -1.5438991794
 C         -4.3327938096       -0.9834787854       -0.5257082236
 H         -3.4625137113       -1.3914050826       -0.0370877878
 H         -4.6120615342       -2.6211822469       -1.8653955327
 H         -6.6065724436       -1.6343025775       -2.9339737028
 H         -7.4514942026        0.5632735375       -2.1942255180
 H         -6.2647372194        1.7791049504       -0.3607603692
 H         -3.0478454286        2.6577539419       -0.2747830064
 H         -2.4010829645        1.7997546341       -2.3825401728
 H         -0.9216690596        0.2387841463       -3.6078244733
 H          0.4311282107       -1.4002210852       -2.3713990454
 H          0.7269524636       -2.6414599710       -0.4990153321
 C          0.3556055860       -2.4044561565        1.5509744108
 C          0.1692684594       -1.6515414201        2.8324722286
 C         -0.9797814431       -2.4053311304        2.2315863513
 H         -1.2937518002       -3.3182871105        2.7166647728
 H         -1.7948467319       -1.8361725934        1.8144818181
 H          0.6382893507       -2.0479126967        3.7223774372
 H          0.1681665065       -0.5738615962        2.7975615158
 H          0.9231872587       -3.3276059885        1.6543078394
