  62
        -98.93252307
 C         -2.4422206584       -1.2611314397       -0.1412190429
 C         -2.1482630591       -0.0722930126       -0.8470014330
 C         -2.8290565384        1.1571569827       -0.3918654126
 C         -3.6452415035        1.1031634202        0.6748946584
 C         -4.4275078750        2.2143017298        1.3277327068
 C         -3.6771477302        3.5357658896        1.5565325478
 C         -4.1634462899        4.6732945251        0.6570471195
 H         -5.2512123734        4.6151106096        0.5813307453
 H         -3.9199786974        5.6246279905        1.1352149519
 C         -3.5589774749        4.6927451587       -0.7455781784
 H         -4.0858498351        5.4568669556       -1.3218746268
 H         -2.5119095878        4.9970401885       -0.6821919003
 C         -3.6301386855        3.3676594470       -1.5073879970
 H         -3.5666916154        3.5933635559       -2.5740021301
 H         -4.5907946847        2.8818895335       -1.3419528216
 C         -2.4868248028        2.3996196828       -1.1690745971
 H         -2.0351625194        2.0299533870       -2.0949711748
 H         -1.6884638518        2.9295129603       -0.6398458981
 H         -3.8363565755        3.8342618157        2.5940767059
 H         -2.6062972225        3.3804780252        1.4288489058
 H         -5.3307441074        2.3972127757        0.7406575609
 H         -4.7556987331        1.8033293409        2.2851240995
 O         -3.8965670587       -0.0649866478        1.3323012573
 C         -3.3130738869       -1.2558510865        0.9525494964
 O         -3.6447298069       -2.2333804927        1.6527775001
 H          0.3653476911       -1.1594729574       -1.1419406056
 C          0.5789721696       -1.8444163066       -0.3346130697
 C         -0.4278216604       -2.6776004682        0.1320059949
 C         -0.1431548759       -3.5316734213        1.1908056410
 C          1.1156132439       -3.5457263481        1.7667254756
 C          2.1132434225       -2.7050641397        1.3054769556
 C          1.8344549497       -1.8437408018        0.2530717895
 N          2.8377839943       -0.9566867864       -0.2136295960
 S          3.2188410681        0.2818628306        0.8757122535
 O          3.6998977384       -0.3148057682        2.0953303323
 O          2.1016317918        1.1946291953        1.0109497550
 C          4.5621079245        1.0774675776        0.0167050810
 C          5.8375810924        0.5666148524        0.1603409639
 C          6.8787658094        1.1601854517       -0.5351022997
 C          6.6281140470        2.2469502956       -1.3595447979
 C          5.3423298472        2.7485619650       -1.4934047288
 C          4.2964023447        2.1585796859       -0.8011526801
 H          3.2827197691        2.5208885040       -0.8689985559
 H          5.1498564954        3.5947515379       -2.1332461710
 H          7.4397382929        2.7080918461       -1.8997963256
 H          7.8801657668        0.7745128853       -0.4323816915
 H          5.9850131005       -0.2739731861        0.8176820580
 H          2.5342782072       -0.5115233980       -1.0723082695
 H          3.0879814257       -2.6867102629        1.7640178771
 H          1.3203536475       -4.2140610934        2.5895106398
 H         -0.9245953314       -4.1707908967        1.5764116510
 C         -1.8145773056       -2.6106956370       -0.4627353234
 H         -2.4357655842       -3.3544091541        0.0538783863
 C         -1.8079231259       -2.9372045506       -1.9428656279
 C         -1.6633879533       -4.3666585027       -2.3668142006
 C         -2.9755666139       -3.6630184700       -2.5371349273
 H         -3.2948309764       -3.3952529043       -3.5331037730
 H         -3.7874166432       -3.9292856701       -1.8757692657
 H         -1.5858219117       -5.1122431325       -1.5899667121
 H         -1.0789635224       -4.5856848602       -3.2470679676
 H         -1.3340507644       -2.1791581244       -2.5515667011
 O         -1.3560902237       -0.0063339794       -1.8268488916
