  62
        -98.94467817
 C         -2.6432392350       -1.2413799691        0.1233493479
 C         -2.6371812860       -0.2898659607       -0.9254861959
 C         -3.4629517186        0.9057735843       -0.7089337455
 C         -4.1831771214        1.0356782697        0.4191273001
 C         -5.0783515074        2.1910705286        0.7751314291
 C         -4.3383217684        3.3778134871        1.4074500419
 C         -3.4752457320        4.1944006082        0.4446271168
 H         -4.0713262100        4.4835235676       -0.4214820303
 H         -3.1917220458        5.1105717048        0.9662140995
 C         -2.1986737933        3.4810803557       -0.0233256583
 H         -1.3490658751        4.1651377607        0.0416483608
 H         -1.9774947358        2.6446623613        0.6446253352
 C         -2.2506721433        2.9639255577       -1.4610243183
 H         -1.3079707124        2.4494143541       -1.6689070271
 H         -2.3304202217        3.8073204218       -2.1509013088
 C         -3.4035653393        1.9907121555       -1.7416992214
 H         -3.2264619065        1.5200363264       -2.7118434411
 H         -4.3487156195        2.5314139877       -1.7818762005
 H         -3.7166613230        3.0065282398        2.2254851804
 H         -5.0924723927        4.0413738479        1.8365833953
 H         -5.6163498226        2.5264348132       -0.1117620005
 H         -5.8019241386        1.8114930111        1.4996484031
 O         -4.1887688513        0.0853932255        1.3901659061
 C         -3.4037689381       -1.0487073513        1.2818352741
 O         -3.4762603929       -1.8123304967        2.2651462625
 O         -1.9898140907       -0.4083795289       -2.0006710374
 C         -1.7966399901       -2.5069000598        0.1000869848
 C         -0.3656306749       -2.1398167848        0.4133977602
 C          0.1628842343       -2.3754847320        1.6778715107
 C          1.4515815356       -1.9787496484        1.9884410990
 C          2.2359300580       -1.3327361061        1.0492135351
 C          1.7120796292       -1.0819008759       -0.2117865591
 C          0.4273765296       -1.4982850328       -0.5273622867
 H          0.0199292286       -1.2764815518       -1.5021025244
 N          2.4931320446       -0.4001620825       -1.1659897070
 S          3.0786407151        1.1085180730       -0.7069775485
 O          2.2363809299        1.7232312646        0.2936554247
 O          3.2585528639        1.8439952165       -1.9399543277
 C          4.6788967919        0.7417145488       -0.0162796484
 C          5.5888844420        0.0648580454       -0.8047635623
 C          6.8398637505       -0.2249635447       -0.2840927820
 C          7.1593508564        0.1675823379        1.0073722059
 C          6.2361203654        0.8497869454        1.7848094786
 C          4.9822538367        1.1415451031        1.2702911717
 H          4.2296942545        1.6642055451        1.8391122740
 H          6.4860100275        1.1546902710        2.7883821992
 H          8.1336509688       -0.0592601710        1.4105482185
 H          7.5605760215       -0.7552227999       -0.8854388273
 H          5.3016963857       -0.2179988412       -1.8036484742
 H          2.0354177368       -0.3294438373       -2.0646318790
 H          3.2366982873       -1.0109420735        1.2877368630
 H          1.8479503920       -2.1695929611        2.9741328408
 H         -0.4556243653       -2.8538565293        2.4238938237
 H         -2.1716990976       -3.1290117129        0.9232577047
 C         -1.9294677025       -3.2891574606       -1.1907882723
 C         -1.5149811695       -4.7286867198       -1.2102531672
 C         -2.9667547945       -4.3653338554       -1.2881473573
 H         -3.4842649468       -4.4972701226       -2.2264938795
 H         -3.5855647372       -4.5431737572       -0.4205324070
 H         -1.0330015950       -5.1140239393       -2.0955321875
 H         -1.1488868383       -5.1543989543       -0.2882712655
 H         -1.7482266979       -2.6988363165       -2.0788521541
