  62
        -98.94440220
 C         -1.9352660858       -1.3490129496        0.0781101151
 C         -2.2059179126       -0.3880873351       -0.9260409172
 C         -3.5786069664        0.1399965056       -0.9599298330
 C         -4.4862084953       -0.3032098593       -0.0722606676
 C         -5.8987148469        0.1913212974        0.0357008027
 C         -6.0051537087        1.3610513189        1.0240211984
 C         -4.9694611221        2.4616872235        0.7935073583
 H         -5.1616205926        3.2475474819        1.5272950848
 H         -3.9732909551        2.0648080334        1.0034107368
 C         -4.9872343182        3.0654651373       -0.6177642041
 H         -4.9208620891        4.1523393660       -0.5339089883
 H         -5.9344749704        2.8359997552       -1.1071850388
 C         -3.8317747722        2.6175078811       -1.5148521653
 H         -2.8842897006        2.7614646844       -0.9887286328
 H         -3.8170473158        3.2637626574       -2.3967263510
 C         -3.8949861979        1.1672157964       -2.0107977087
 H         -4.8722868747        0.9738624024       -2.4573026906
 H         -3.1334761937        1.0485584656       -2.7870297507
 H         -7.0091590482        1.7832259187        0.9521839184
 H         -5.8713071993        0.9728555889        2.0363778049
 H         -6.2465745914        0.5005985525       -0.9480027027
 H         -6.5238486484       -0.6298519244        0.3904667265
 O         -4.1971208942       -1.2349107588        0.8701199341
 C         -2.9261885409       -1.7703785017        0.9728214718
 O         -2.8015550681       -2.6115740575        1.8849266578
 H          0.3746849497        0.3908811928       -0.5446852579
 C          0.7921644210        0.0977990368        0.4071496371
 C          0.3928766677       -1.0997520208        0.9834080339
 C          0.9339228092       -1.4574217333        2.2124751920
 C          1.8504894383       -0.6361544814        2.8467454978
 C          2.2460152499        0.5567094223        2.2686293947
 C          1.7043741618        0.9249702410        1.0441510056
 N          2.1164135700        2.1305044086        0.4354659682
 S          3.7575237260        2.2140151582        0.0969378298
 O          4.4748814410        2.5256441821        1.3077716218
 O          3.8895748435        3.1671127419       -0.9819868281
 C          4.1737522037        0.5688492557       -0.4520787346
 C          4.8594201870       -0.2827691906        0.3896122914
 C          5.0992673231       -1.5829177011       -0.0249896184
 C          4.6466713044       -2.0074098522       -1.2642754500
 C          3.9595535895       -1.1390861464       -2.0986484564
 C          3.7154900577        0.1612383986       -1.6890688301
 H          3.1862273368        0.8638654829       -2.3131770581
 H          3.6078751291       -1.4699928526       -3.0629227793
 H          4.8310997733       -3.0214233091       -1.5827080024
 H          5.6326843827       -2.2613054671        0.6210025252
 H          5.1928206380        0.0883096903        1.3447088175
 H          1.5852757222        2.3429567786       -0.3978482882
 H          2.9651857669        1.2061005838        2.7413848532
 H          2.2618573616       -0.9281626516        3.8008703660
 H          0.6236715998       -2.3830281582        2.6750927761
 C         -0.5768955411       -2.0084063316        0.2666767321
 H         -0.7609792473       -2.8766712960        0.9128175201
 C          0.0300046488       -2.5001379601       -1.0346804485
 C          1.0863099877       -3.5606532460       -0.9859436393
 C         -0.2793265161       -3.8857510904       -1.5112141909
 H         -0.4024374015       -4.0500857707       -2.5711867203
 H         -0.9327535859       -4.4904084791       -0.8988323211
 H          1.3616274791       -3.9473681422       -0.0166941971
 H          1.9057947266       -3.5005743830       -1.6846246749
 H          0.1255540894       -1.7261692146       -1.7841670216
 O         -1.3630723713        0.0283319848       -1.7669525035
