  62
        -98.93015084
 C         -1.7441160299       -1.1533983703        0.7105929603
 C         -2.7530375298       -1.1536049907       -0.2807510398
 C         -3.7780192597       -0.0911178305       -0.1759770204
 C         -3.6946408397        0.8123242699        0.8156245992
 C         -4.6064442596        1.9750186402        1.1161708086
 C         -6.1163267696        1.6991821603        1.0429507686
 C         -6.8005881694        2.3775794098       -0.1449324918
 H         -7.8605261494        2.5033223501        0.0872867080
 H         -6.3741327993        3.3752289097       -0.2684053622
 C         -6.7046093494        1.6196821692       -1.4679946214
 H         -7.1012479292        2.2704902289       -2.2508982318
 H         -7.3459452795        0.7365368993       -1.4254257411
 C         -5.2963743494        1.1739041189       -1.8674431411
 H         -4.5704284893        1.9550888689       -1.6457800814
 H         -5.2880275193        1.0297128584       -2.9499946110
 C         -4.8618958596       -0.1485574509       -1.2182480304
 H         -5.7316674697       -0.6574941006       -0.7922357803
 H         -4.4686814896       -0.8215841213       -1.9866630101
 H         -6.2968301697        0.6254685903        1.0211170391
 H         -6.5706574997        2.0837085408        1.9576077584
 H         -4.3362027897        2.2931039106        2.1256006985
 H         -4.3483014394        2.8013409399        0.4495719882
 O         -2.6788033298        0.7965311503        1.7267742793
 C         -1.6946582299       -0.1703454999        1.7011058499
 O         -0.8406045600       -0.0591872995        2.6042705699
 O         -2.8178877598       -1.9881197911       -1.2188353494
 C         -0.6291766600       -2.1849587804        0.7724208809
 C          0.5593370501       -1.7079021909       -0.0214346992
 C          0.4349908503       -1.3403890115       -1.3579694194
 C          1.5361304804       -0.8954477919       -2.0665399395
 C          2.7757792804       -0.7945267718       -1.4584183794
 C          2.9040439302       -1.1352779012       -0.1185160292
 C          1.7991884701       -1.5937014707        0.5885980609
 H          1.9023716499       -1.8497900603        1.6342334210
 N          4.1499236501       -1.0139488610        0.5150865208
 S          5.1148202503        0.3030441387        0.1570750803
 O          5.8327205304        0.0570405281       -1.0688718095
 O          5.9307591402        0.4999164692        1.3341876403
 C          4.0021865805        1.6807484887       -0.0688654204
 C          3.0989799504        1.9728825993        0.9336975794
 C          2.2275264306        3.0359681693        0.7617247788
 C          2.2771083208        3.7886506487       -0.4017231116
 C          3.1944214908        3.4871424482       -1.3963144113
 C          4.0646962307        2.4217194782       -1.2316734707
 H          4.7888095607        2.1482618677       -1.9819856606
 H          3.2313378910        4.0754837978       -2.2989617416
 H          1.5956611509        4.6146552388       -0.5314401520
 H          1.5097343705        3.2647278497        1.5335512386
 H          3.0779267003        1.3755042797        1.8311783396
 H          4.1336675800       -1.2049769706        1.5058722609
 H          3.6439499705       -0.4612691121       -2.0033981095
 H          1.4298561005       -0.6225716524       -3.1053961996
 H         -0.5324685697       -1.4121665316       -1.8315034994
 H         -0.3265659101       -2.2121849199        1.8314912410
 C         -1.0812983001       -3.5904473105        0.4015790015
 C         -0.6212587301       -4.3210023411       -0.8202860381
 C         -0.1188141203       -4.7346478406        0.5280360821
 H         -0.4681403204       -5.6631663403        0.9535959325
 H          0.9057942097       -4.4949833806        0.7715397121
 H         -1.3400341101       -4.9489023013       -1.3241412879
 H          0.0652782600       -3.8256361015       -1.4881433583
 H         -2.1024173802       -3.7810443703        0.7146493415
