  62
        -98.93689502
 C         -1.5308996009       -1.5039073027        0.1403938817
 C         -2.6899252918       -1.0913285711        0.8394395264
 C         -3.4043396819        0.0840179177        0.3073149422
 C         -2.8935469667        0.7254654460       -0.7578819543
 C         -3.4086642113        1.9783554333       -1.4119317873
 C         -2.7488929943        3.2252271098       -0.7973953597
 C         -3.4705714865        3.8056820359        0.4175228745
 H         -2.8478817442        4.6126163327        0.8112276955
 H         -4.4164781132        4.2482476402        0.0985576326
 C         -3.7507923449        2.8075094870        1.5434547061
 H         -2.8735802884        2.1771753284        1.7029229777
 H         -3.9117066712        3.3739307124        2.4628885301
 C         -4.9812425596        1.9278091189        1.2782373819
 H         -5.5415478149        2.3382561687        0.4385569052
 H         -5.6476429029        1.9667867837        2.1426826332
 C         -4.6769658470        0.4456410145        1.0244699997
 H         -4.6121174695       -0.0792620973        1.9832443232
 H         -5.5177560904       -0.0018503565        0.4829272854
 H         -1.7258017096        2.9612283104       -0.5178982247
 H         -2.6932648246        4.0052161675       -1.5595360679
 H         -3.1261607416        1.9160579266       -2.4647132033
 H         -4.4910777470        2.0333698320       -1.3445432027
 O         -1.7473638808        0.3245113947       -1.3722877754
 C         -1.0420481627       -0.7956827549       -0.9597002710
 O         -0.0275742703       -1.0328949157       -1.6365001569
 O         -3.1061364325       -1.6733964357        1.8783570160
 C         -0.7654099124       -2.7004399861        0.6767869243
 C          0.7095712901       -2.3844862320        0.7149806397
 C          1.6908488160       -3.1887165919        0.1524049869
 C          3.0218066498       -2.8092730863        0.1993825436
 C          3.4028401201       -1.6226047734        0.7964701743
 C          2.4279553017       -0.8088899645        1.3599300318
 C          1.1005688071       -1.2016937192        1.3319901118
 H          0.3444293121       -0.5631387459        1.7737327641
 N          2.7970841981        0.4188504277        1.9477064078
 S          3.6365353732        1.4981753869        0.9763661753
 O          4.9911839300        1.0307476462        0.8219814532
 O          3.4781577575        2.7824893298        1.6226775098
 C          2.8023587422        1.4892706694       -0.5979502890
 C          3.2675689341        0.6771165389       -1.6114193632
 C          2.5790432385        0.6462366817       -2.8125141438
 C          1.4463597725        1.4253807520       -2.9797226615
 C          0.9956098770        2.2414017857       -1.9547323940
 C          1.6729256651        2.2688203549       -0.7474985997
 H          1.3537868093        2.8908410032        0.0748266150
 H          0.1116491045        2.8439643454       -2.0913963928
 H          0.9051698725        1.3923175000       -3.9119034643
 H          2.9213200498        0.0069383264       -3.6100157677
 H          4.1557545119        0.0901595288       -1.4453812224
 H          2.0210055665        0.8965415185        2.3836725518
 H          4.4323185533       -1.3038475561        0.8249387468
 H          3.7728380565       -3.4441074250       -0.2456763351
 H          1.4152324538       -4.1031808967       -0.3458715745
 H         -1.1168595507       -2.8075191704        1.7172806531
 C         -1.0854110738       -4.0127375795       -0.0236947419
 C         -2.3741344478       -4.2029737733       -0.7648837885
 C         -1.0808554250       -4.1358384786       -1.5171291619
 H         -0.6977049340       -5.0454806383       -1.9559728223
 H         -0.8608344577       -3.2471117163       -2.0871385027
 H         -2.8755291784       -5.1557183563       -0.6818374245
 H         -3.0477565696       -3.3606043162       -0.8269763080
 H         -0.7287436790       -4.8708071878        0.5377657107
