  62
        -98.93930644
 C         -1.2824002906       -0.9631508099        0.4220245397
 C         -2.2633669806       -0.9054349193       -0.5962785202
 C         -3.1662214402        0.2618504510       -0.5737508399
 C         -3.0124593198        1.2096905907        0.3680081004
 C         -3.7425495994        2.5180802109        0.5878013308
 C         -5.1177608593        2.7586551316       -0.0315046091
 C         -6.2254780796        1.8384323519        0.4780816707
 H         -6.4173772895        2.0692106416        1.5290744708
 H         -7.1359745996        2.0624543323       -0.0823726392
 C         -5.9384283602        0.3420244018        0.3780438403
 H         -5.1172790902        0.0797166513        1.0485601902
 H         -6.8239843903       -0.1917518880        0.7339343401
 C         -5.6180119504       -0.1717334179       -1.0249578999
 H         -5.6151440508       -1.2640057580       -0.9793680402
 H         -6.4069438903        0.1312820125       -1.7158784898
 C         -4.2601454303        0.2697257317       -1.6018063498
 H         -3.9682557506       -0.4530506782       -2.3687673700
 H         -4.3288275099        1.2437846119       -2.0799149595
 H         -5.0589764994        2.7109491719       -1.1148320991
 H         -5.3972003989        3.7840619016        0.2258778212
 H         -3.8148386193        2.6358929206        1.6735819708
 H         -3.0671143891        3.3055351108        0.2349317610
 O         -2.0329019598        1.1242935701        1.3157455603
 C         -1.1732434102        0.0439568798        1.3824958900
 O         -0.3653238202        0.0963964492        2.3326690900
 H          2.2182342893       -1.2224984414        1.0512810595
 C          2.0678615492       -1.4148660410       -0.0004354405
 C          0.8434675490       -1.8888956404       -0.4508440906
 C          0.6788086289       -2.1315821200       -1.8107451407
 C          1.7209216489       -1.9063511001       -2.6910868707
 C          2.9373076891       -1.4243477307       -2.2401662906
 C          3.1102463192       -1.1726566011       -0.8845247105
 N          4.3354423994       -0.6883142917       -0.3964295504
 S          4.3485870899        0.5411634480        0.7388032799
 O          5.6909263001        1.0769455275        0.6649129300
 O          3.9413726398        0.0342824477        2.0232970698
 C          3.1874779403        1.7426445386        0.1159377403
 C          3.6027153706        2.5506083487       -0.9259350395
 C          2.7096468109        3.4567100592       -1.4719873692
 C          1.4168610109        3.5352359095       -0.9749835891
 C          1.0178431807        2.7200776394        0.0717733007
 C          1.9081694604        1.8129814889        0.6262486904
 H          1.6115212402        1.1722083188        1.4420346802
 H          0.0153328407        2.7729368896        0.4680318507
 H          0.7177399212        4.2370968499       -1.4017795389
 H          3.0199129611        4.0967974293       -2.2820601090
 H          4.6194520505        2.4678318684       -1.2745975195
 H          5.0308702695       -0.5252860818       -1.1105091404
 H          3.7485670091       -1.2462369808       -2.9294749105
 H          1.5822377088       -2.1008906598       -3.7437218807
 H         -0.2773004113       -2.4745863695       -2.1725297707
 C         -0.2762524810       -2.0981811303        0.5409711994
 H          0.1543996090       -2.0069963608        1.5477366494
 C         -0.9045668515       -3.4715541700        0.4158592690
 C         -0.1537297919       -4.6579511105        0.9376712986
 C         -1.3786775417       -4.1720765502        1.6517365688
 H         -2.2797251320       -4.7643435499        1.5952051487
 H         -1.2502492815       -3.6634944105        2.5967272790
 H         -0.2115209923       -5.5865127703        0.3909706484
 H          0.8060512981       -4.4778364309        1.3990697186
 H         -1.4938427516       -3.6013008496       -0.4815873710
 O         -2.4018972710       -1.7732391690       -1.4966180505
