  62
        -98.94753017
 C         -1.3377244064       -1.6255427518       -0.5008273600
 C         -1.1934073082       -0.3157037123       -1.0231449147
 C         -2.3794833120        0.5502047852       -0.9223297032
 C         -3.5111274469        0.0721910956       -0.3767579607
 C         -4.7788186976        0.8537119700       -0.1890822204
 C         -4.8268967995        1.5218130640        1.1912683058
 C         -3.5602442310        2.3017173883        1.5444106540
 H         -3.7252296340        2.7684359919        2.5183417265
 H         -2.7252664235        1.6062466142        1.6634925226
 C         -3.1707175571        3.3776119551        0.5216684620
 H         -2.8931392748        4.2858679624        1.0611267640
 H         -4.0278277376        3.6217724497       -0.1077628419
 C         -1.9772006847        3.0027143762       -0.3594411876
 H         -1.6314343509        3.9111506542       -0.8621559536
 H         -1.1637030263        2.6409977131        0.2761787872
 C         -2.2511809699        1.9531669215       -1.4450481314
 H         -3.1384141991        2.2366268781       -2.0157581465
 H         -1.3925353668        1.9415349824       -2.1227772775
 H         -5.6878713691        2.1924455228        1.2205961722
 H         -4.9731179406        0.7470037085        1.9474351377
 H         -5.6209629007        0.1649912091       -0.2778745351
 H         -4.8537730402        1.6064911706       -0.9713330619
 O         -3.6187102633       -1.1930010192        0.1030425733
 C         -2.5380258880       -2.0561586030        0.0726421873
 O         -2.7715236210       -3.1783130106        0.5677465024
 O         -0.1470743543        0.1293431897       -1.5645039709
 C         -0.2157929313       -2.6545426699       -0.4858109389
 C          0.7044994646       -2.4053742819        0.6847591670
 C          0.8788695187       -3.3577221737        1.6819870771
 C          1.7095143630       -3.1012100854        2.7587853624
 C          2.3668692415       -1.8888899932        2.8690027122
 C          2.1968964812       -0.9303034050        1.8762304932
 C          1.3856343866       -1.2012210950        0.7853794549
 H          1.2510962466       -0.4515812754        0.0240318199
 N          2.8543534245        0.3061572613        1.9380014228
 S          2.1047345659        1.6774533194        1.3321729257
 O          2.8071965633        2.7753970186        1.9691881520
 O          0.6781709261        1.6478455858        1.5600195772
 C          2.4963557650        1.7049897695       -0.4042094604
 C          1.7624991989        2.5437345658       -1.2169697057
 C          2.0721845404        2.6132995461       -2.5651707108
 C          3.1089437349        1.8487408630       -3.0749465690
 C          3.8421548609        1.0173202284       -2.2432817128
 C          3.5383492437        0.9440499325       -0.8933252435
 H          4.0830480996        0.2968033359       -0.2259919421
 H          4.6462497616        0.4197433739       -2.6424244136
 H          3.3428350943        1.8977779451       -4.1270063408
 H          1.4980518420        3.2569629060       -3.2126097283
 H          0.9552337617        3.1128920402       -0.7856206082
 H          3.3548635681        0.4935197709        2.7940845179
 H          3.0017073212       -1.6819454728        3.7172090140
 H          1.8366894641       -3.8478849042        3.5280701190
 H          0.3441748029       -4.2942496137        1.6183544407
 H         -0.7054550776       -3.6251328628       -0.3277562477
 C          0.5667753216       -2.7166117231       -1.7833680936
 C          1.3318097829       -3.9627575083       -2.1087290405
 C          0.0947137698       -3.6186298823       -2.8818121213
 H          0.1972201367       -3.2826887731       -3.9025489859
 H         -0.7982257385       -4.2000963450       -2.7020560627
 H          2.2878053392       -3.8655523100       -2.5993313208
 H          1.2777831182       -4.7813212720       -1.4069290303
 H          0.9993534882       -1.7675028348       -2.0700043279
