  62
        -98.93517142
 C          2.2543288422        1.1108784874       -0.0178433299
 C          3.1893788388        0.5946182099        0.9156921961
 C          4.1590869302       -0.4005256887        0.4247745967
 C          4.0998404139       -0.7820494466       -0.8633247208
 C          4.9668052322       -1.7718130603       -1.5991455080
 C          5.2725354119       -3.0898006202       -0.8708101800
 C          6.7280918562       -3.2096426285       -0.4163844053
 H          6.9762122717       -4.2684746989       -0.3143181232
 H          7.3711827397       -2.7985877407       -1.1973628488
 C          7.0503368861       -2.5299556699        0.9132254989
 H          6.5987744690       -3.0994566422        1.7284325403
 H          8.1334910338       -2.5699076838        1.0504301835
 C          6.5946197043       -1.0740483708        1.0321506752
 H          7.2098947041       -0.5939936410        1.7961276112
 H          6.7728232053       -0.5400134202        0.0995126639
 C          5.1256390868       -0.9205086896        1.4536121623
 H          5.0537261638       -0.2091568985        2.2822192512
 H          4.7475526135       -1.8706977911        1.8420747080
 H          4.5997972162       -3.2088408759       -0.0227869135
 H          5.0673718416       -3.9078913857       -1.5631908894
 H          5.9002330716       -1.2761817326       -1.8771161483
 H          4.4345309806       -1.9767265173       -2.5308358670
 O          3.1870179463       -0.2583061647       -1.7283424301
 C          2.2502896351        0.6859832995       -1.3451648122
 O          1.4990685311        1.0394599124       -2.2777883654
 O          3.2187990023        0.9606476768        2.1212784455
 C          1.2674556510        2.1398209411        0.5076758755
 C         -0.0760338822        1.5161506472        0.8047877445
 C         -0.5868025075        1.5074329311        2.0974059782
 C         -1.8224621865        0.9433723003        2.3623843825
 C         -2.5694256668        0.3714575280        1.3482558672
 C         -2.0677847980        0.3741674558        0.0530784051
 C         -0.8335186058        0.9511806359       -0.2113428876
 H         -0.4462478031        0.9469066092       -1.2196177426
 N         -2.7988821367       -0.2322786680       -0.9817818670
 S         -4.4292964818        0.1250527104       -1.1418868528
 O         -4.7450226788       -0.1495383621       -2.5265445685
 O         -4.7315649328        1.4552130213       -0.6659220972
 C         -5.2329253815       -1.0875985344       -0.1144638441
 C         -6.1251644316       -0.6846500742        0.8597393763
 C         -6.7459768060       -1.6480079480        1.6397743582
 C         -6.4661300608       -2.9898436218        1.4318713084
 C         -5.5695766703       -3.3782510992        0.4473292377
 C         -4.9464286562       -2.4203488677       -0.3363684442
 H         -4.2461937810       -2.6801571202       -1.1128384637
 H         -5.3541547463       -4.4226707010        0.2884825607
 H         -6.9493153687       -3.7377979612        2.0404830788
 H         -7.4433468836       -1.3482186179        2.4054180672
 H         -6.3074283430        0.3703178861        0.9890385346
 H         -2.3298808842       -0.2017189065       -1.8756474161
 H         -3.5304158397       -0.0728919395        1.5493986017
 H         -2.2068928411        0.9441982511        3.3708780921
 H         -0.0023030963        1.9366947572        2.8979693579
 H          1.6929780607        2.4814897012        1.4607254472
 C          1.1101956612        3.3420339820       -0.4032385397
 C          0.5968519803        4.6265987155        0.1718694549
 C          2.0326159570        4.5112609461       -0.2423998071
 H          2.3603962332        5.0336598802       -1.1285872505
 H          2.7833916900        4.4520432241        0.5320801064
 H         -0.0666627925        5.2298648163       -0.4286598265
 H          0.3741644761        4.6477759114        1.2278825336
 H          0.8068328164        3.0846843763       -1.4098344474
