  62
        -98.93677743
 C         -2.2938890333       -1.3174262533        0.2100621122
 C         -2.3667490418       -0.0711281902       -0.4568939376
 C         -3.3726276881        0.8731323487        0.0537196277
 C         -4.1270031745        0.5409410335        1.1159685801
 C         -5.1606039706        1.4014354829        1.7930564600
 C         -6.4054250502        1.7543060117        0.9559246423
 C         -6.3131306865        3.0967516344        0.2200206035
 H         -7.2829421024        3.5952280247        0.2765274888
 H         -5.6016081843        3.7362647823        0.7439356818
 C         -5.9364019552        3.0216439040       -1.2627847963
 H         -6.8131744724        2.7165873667       -1.8385592021
 H         -5.6626248435        4.0272949896       -1.5892101698
 C         -4.8010248201        2.0607520383       -1.6164055835
 H         -4.5021840751        2.2512671455       -2.6491637159
 H         -5.1678706439        1.0319761374       -1.5860840230
 C         -3.5657255654        2.1571637421       -0.6996293201
 H         -2.6651962590        2.3071122509       -1.2990605273
 H         -3.6601082541        2.9955046741       -0.0109274254
 H         -7.2475159308        1.8034059416        1.6479665822
 H         -6.6114568722        0.9474344933        0.2532117851
 H         -4.6806863624        2.3212283533        2.1351495754
 H         -5.4722601104        0.8396557018        2.6759187440
 O         -4.0022766446       -0.6566980752        1.7501559055
 C         -3.0983943339       -1.6086096256        1.3153014096
 O         -3.1030780610       -2.6611799442        1.9840174967
 O         -1.6400555418        0.2539718618       -1.4334187939
 C         -1.3043137251       -2.3955916359       -0.2071593152
 C          0.0812280764       -1.9368496937        0.1775739791
 C          0.5517628929       -2.1893506274        1.4630602774
 C          1.7891290846       -1.7224804862        1.8652179571
 C          2.5781460140       -0.9846758095        0.9994445266
 C          2.1086683167       -0.7111587918       -0.2775564537
 C          0.8763204581       -1.2023521252       -0.6881375121
 H          0.5165306714       -0.9691370709       -1.6776187362
 N          2.8934751140        0.0538825316       -1.1585171869
 S          3.5378287406        1.4949052021       -0.5848064872
 O          2.7370017905        2.0576661598        0.4779859710
 O          3.7262762590        2.3208228412       -1.7578282540
 C          5.1361043951        1.0167031335        0.0412882910
 C          5.4907838810        1.3297940284        1.3387732244
 C          6.7432748947        0.9556326151        1.8006062116
 C          7.6148354930        0.2796742377        0.9606795765
 C          7.2446686840       -0.0248890946       -0.3408711832
 C          5.9946944897        0.3473206581       -0.8087894207
 H          5.6701583237        0.1336746250       -1.8133740660
 H          7.9252000530       -0.5506272930       -0.9911092047
 H          8.5882508340       -0.0112587172        1.3227858367
 H          7.0324845199        1.1921991319        2.8120205716
 H          4.7781145874        1.8521685504        1.9573326769
 H          2.4519633742        0.2010155693       -2.0553891248
 H          3.5386423767       -0.6072039231        1.3101194034
 H          2.1426576910       -1.9304620065        2.8637141916
 H         -0.0753533965       -2.7431653716        2.1479516345
 H         -1.5494342897       -3.2760625525        0.4011668170
 C         -1.4425004401       -2.7636449209       -1.6698080050
 C         -0.8064848391       -4.0255216567       -2.1677187348
 C         -2.2975138589       -3.9332067909       -2.0505419945
 H         -2.8843572202       -3.8686350280       -2.9546271020
 H         -2.7831944802       -4.4776801235       -1.2538095329
 H         -0.3674539039       -4.0280363056       -3.1535917987
 H         -0.2785866297       -4.6330782079       -1.4484219627
 H         -1.4583629924       -1.9076960343       -2.3322310036
