  62
        -98.94802769
 C         -1.2535816994       -1.0633632702        0.0234404417
 C         -1.6179325284        0.0213450542        0.8553615278
 C         -2.6269527303        0.9396300258        0.3137722085
 C         -3.0899649676        0.7431833455       -0.9341659004
 C         -4.1454078026        1.5788510004       -1.5975597824
 C         -5.5485287827        1.0098698702       -1.3440211804
 C         -5.8311608148        0.6956884238        0.1250195134
 H         -6.8582327818        0.3298714525        0.1873279948
 H         -5.1784790547       -0.1192237828        0.4459395035
 C         -5.6545880146        1.8891733406        1.0740790175
 H         -6.5025162624        1.9187548610        1.7615439693
 H         -5.6657667254        2.8196422481        0.5053061079
 C         -4.3884147889        1.8354452074        1.9307174420
 H         -4.4705110355        2.6004852698        2.7073396586
 H         -4.3263608413        0.8656802195        2.4307256104
 C         -3.0685935945        2.0796576237        1.1877529924
 H         -3.1339208619        3.0039171917        0.6091985910
 H         -2.2816425016        2.2040040601        1.9378641108
 H         -5.6557525645        0.0872182083       -1.9190348213
 H         -6.2831595878        1.7278315324       -1.7131622493
 H         -4.0802798719        2.5990942787       -1.2236614213
 H         -3.9519114165        1.5850741990       -2.6717681047
 O         -2.6758001319       -0.2779170839       -1.7267769432
 C         -1.7488641990       -1.2055343466       -1.2724525878
 O         -1.4560560261       -2.0871693512       -2.1025284621
 H          0.8415146655        0.1113584668       -0.6162658668
 C          1.4486499134       -0.7622476807       -0.7949109656
 C          1.0331754014       -1.9961460836       -0.3148847805
 C          1.8173904884       -3.1098888232       -0.5905855672
 C          2.9750484595       -2.9819278119       -1.3385370620
 C          3.3895809816       -1.7475931120       -1.8052751891
 C          2.6147562745       -0.6266736940       -1.5301765189
 N          2.9900061454        0.6473641165       -1.9809933415
 S          2.6675658243        1.9895741162       -1.0381131314
 O          1.2667342480        2.3262746021       -1.0969559810
 O          3.5780590007        2.9978635061       -1.5388948261
 C          3.1499297764        1.5150373668        0.6126431883
 C          2.2063484860        1.2847136845        1.5919275457
 C          2.6303360246        0.8685857503        2.8447429615
 C          3.9812188274        0.6918511096        3.0968942399
 C          4.9189526189        0.9363358425        2.1044590453
 C          4.5014271010        1.3485276619        0.8503579006
 H          5.1994033969        1.5601570579        0.0567065141
 H          5.9700196586        0.8039050650        2.3039883632
 H          4.3038323629        0.3648736618        4.0727732926
 H          1.8918031467        0.6799060413        3.6077301575
 H          1.1580904948        1.4218273625        1.3767710561
 H          3.8978556433        0.6986151575       -2.4185791030
 H          4.2943034570       -1.6506096563       -2.3852586556
 H          3.5689105331       -3.8567817055       -1.5550783851
 H          1.5172505835       -4.0790699771       -0.2273491994
 C         -0.2219785986       -2.0565170646        0.5223222378
 H          0.0405113052       -1.7177247407        1.5368762866
 C         -0.8165477920       -3.4471742819        0.6124350243
 C         -0.3730726602       -4.3967944193        1.6839452117
 C         -1.7311780888       -3.7684423718        1.7554563951
 H         -2.5987675585       -4.3822914847        1.5653666441
 H         -1.8987653107       -2.9922366801        2.4880626703
 H          0.3783670043       -4.0532052730        2.3785743562
 H         -0.3098306352       -5.4480099924        1.4461990450
 H         -1.0712588967       -3.8518525004       -0.3605310076
 O         -1.1172698744        0.2141262012        1.9970583206
