  62
        -98.93551413
 C         -2.3911149013       -1.4147230332        0.0142373913
 C         -3.0959431677       -0.7065961255        1.0200420223
 C         -3.9721521583        0.3936631440        0.5842425684
 C         -4.0533084159        0.6884460395       -0.7262721604
 C         -4.8821797892        1.7140168295       -1.4710131793
 C         -5.5812729768        2.8444532185       -0.7208616631
 C         -4.6401512945        3.8723016102       -0.0931361734
 H         -5.2389089319        4.5674426355        0.4993097072
 H         -4.1639022705        4.4427660233       -0.8946996985
 C         -3.5290816586        3.3019643567        0.7853335083
 H         -2.9319149537        4.1398354795        1.1560085411
 H         -2.8619822806        2.6819030492        0.1817791268
 C         -3.9985528946        2.4959018937        1.9949694373
 H         -4.6864471309        3.0974438579        2.5922770470
 H         -3.1181206136        2.2844487906        2.6080411230
 C         -4.6733173788        1.1510917926        1.6746330343
 H         -5.7256779412        1.2836723431        1.4354003042
 H         -4.6151680069        0.5236536140        2.5687434007
 H         -6.2563549845        2.4387212667        0.0267296577
 H         -6.1991124366        3.3691532352       -1.4546645072
 H         -5.6390664387        1.1418128139       -2.0189917524
 H         -4.2155881443        2.1435792833       -2.2258788920
 O         -3.3497672106       -0.0144088261       -1.6599806831
 C         -2.4986458609       -1.0596407673       -1.3288308174
 O         -1.9229097340       -1.5586596509       -2.3148317291
 O         -3.0086639735       -0.9963671198        2.2432602899
 C         -1.4985747430       -2.5527115933        0.4799015587
 C         -0.0896479778       -2.0624065304        0.6955132220
 C          0.5578092652       -2.2407896506        1.9118220879
 C          1.8397690630       -1.7549105908        2.1047732978
 C          2.5003797348       -1.0839974200        1.0913165263
 C          1.8595521646       -0.8960046677       -0.1265043379
 C          0.5767899112       -1.3858141380       -0.3177025028
 H          0.0818127535       -1.2349054992       -1.2664614196
 N          2.5227586866       -0.2089759720       -1.1639337628
 S          2.9953555446        1.3691406170       -0.8203409617
 O          2.1347422998        1.9722898454        0.1723261582
 O          3.0685222886        2.0376686922       -2.1012870096
 C          4.6415512766        1.1773456882       -0.1700857075
 C          4.9470926317        1.6561299677        1.0887349524
 C          6.2366145520        1.4943176943        1.5716026817
 C          7.1915319960        0.8608119992        0.7910975772
 C          6.8687636407        0.3880183535       -0.4724363837
 C          5.5821490354        0.5473257510       -0.9615688841
 H          5.2893424531        0.1981500697       -1.9376727739
 H          7.6140574411       -0.1039613939       -1.0763329737
 H          8.1934576210        0.7346955812        1.1698803271
 H          6.4893676403        1.8613791452        2.5533515043
 H          4.1690874762        2.1354876474        1.6612647402
 H          2.0080789932       -0.2276423073       -2.0339548032
 H          3.4974815701       -0.7011548182        1.2358436765
 H          2.3295334889       -1.8985017915        3.0556594218
 H          0.0417959767       -2.7470296321        2.7143848892
 H         -1.9028354072       -2.8352856173        1.4647236608
 C         -1.5801313012       -3.7823274675       -0.4144512126
 C         -0.4469628921       -4.2774729763       -1.2576119410
 C         -0.8482669091       -5.0342807086       -0.0295498856
 H         -1.3493044401       -5.9834810657       -0.1428497177
 H         -0.1909591092       -4.9781626533        0.8250574949
 H         -0.6899870647       -4.6858945219       -2.2267448439
 H          0.4835670196       -3.7326325940       -1.2389246848
 H         -2.5740595326       -3.9092566542       -0.8318607679
