  62
        -98.94535400
 C         -1.6552736991       -1.2307940008       -0.7600878993
 C         -2.8336997691       -0.7996201417       -0.0966797387
 C         -3.3154844601        0.5482521080       -0.4170375483
 C         -2.6458030810        1.2849623486       -1.3212382584
 C         -2.9904574621        2.6926449285       -1.7110282280
 C         -2.2249235724        3.7070731388       -0.8508038981
 C         -2.3068597416        3.4316618285        0.6508298019
 H         -1.7639710709        2.5084014188        0.8710259015
 H         -1.7675735619        4.2364225287        1.1564854918
 C         -3.7355187213        3.3446647974        1.2066509025
 H         -3.7790160213        3.9093489472        2.1404570126
 H         -4.4314463919        3.8149275571        0.5106216028
 C         -4.2151851002        1.9265841971        1.5229472324
 H         -5.1270350200        2.0021565264        2.1216963028
 H         -3.4637357496        1.4160038574        2.1314923920
 C         -4.5333416402        1.0425849571        0.3103946723
 H         -5.0492057094        0.1494063567        0.6749809724
 H         -5.2025334808        1.5744593868       -0.3689194473
 H         -2.6139027631        4.7050480386       -1.0633260478
 H         -1.1705248425        3.6811385196       -1.1364187685
 H         -4.0628663221        2.8426784378       -1.6016185275
 H         -2.7163571826        2.8375089989       -2.7575819781
 O         -1.5423669010        0.8322824495       -1.9609465889
 C         -0.9879301900       -0.4051339602       -1.6636673894
 O          0.0691358898       -0.6277584194       -2.2875805499
 O         -3.4576279783       -1.5204328123        0.7295448714
 C         -1.1181006881       -2.5905074406       -0.3434928198
 C         -0.2290177877       -2.4191647002        0.8671440699
 C         -0.4351593667       -3.1604728106        2.0234627398
 C          0.3436503636       -2.9383047003        3.1456708395
 C          1.3116193130       -1.9512126997        3.1444885093
 C          1.5276994720       -1.2048978693        1.9897048294
 C          0.7869665617       -1.4739200296        0.8497440996
 H          0.9668482410       -0.9034505393       -0.0456156503
 N          2.4880008013       -0.1847466387        1.9688922392
 S          2.2472487400        1.2617447813        1.1446388496
 O          2.7685872698        2.2771528615        2.0393049095
 O          0.8759607998        1.4237892705        0.7304345102
 C          3.3609227996        1.1216129823       -0.2380261709
 C          4.7005966295        1.3586185832        0.0100103786
 C          5.6105339092        1.2385121739       -1.0263359018
 C          5.1688740989        0.8829974739       -2.2923874917
 C          3.8231279589        0.6500176831       -2.5254232412
 C          2.9056972393        0.7688104223       -1.4912870308
 H          1.8552538893        0.5843652316       -1.6582787704
 H          3.4711142287        0.3718338430       -3.5061134211
 H          5.8753032286        0.7883283145       -3.1020492720
 H          6.6575296691        1.4217246946       -0.8460410322
 H          4.9969529997        1.6466078232        1.0049880785
 H          2.9342394516       -0.0165312785        2.8588414290
 H          1.8927385032       -1.7500109694        4.0318250991
 H          0.1766902344       -3.5201150806        4.0395205195
 H         -1.2258707462       -3.8954771311        2.0484878700
 H         -1.9979614776       -3.1685732912       -0.0274893495
 C         -0.4046407680       -3.3621193499       -1.4337095002
 C         -0.3385647670       -4.8563192999       -1.3409581305
 C         -1.2021272079       -4.2068939602       -2.3794657901
 H         -0.8942944883       -4.2493552498       -3.4131457302
 H         -2.2734584878       -4.2343181009       -2.2425872296
 H          0.5658361632       -5.3506792892       -1.6600096410
 H         -0.8262580964       -5.3294048703       -0.5022426804
 H          0.4552788115       -2.8439353492       -1.8363047905
