  62
        -98.93138309
 C         -2.0533324185       -0.7812372176        0.5764449043
 C         -3.1516409648       -0.8238083755       -0.3131417503
 C         -4.1387116815        0.2703224438       -0.2008269336
 C         -3.9250608677        1.2635469713        0.6792172449
 C         -4.7758385039        2.4739340755        0.9723784989
 C         -5.3811128056        3.2089865085       -0.2334089564
 C         -6.8946429878        3.0260365384       -0.3621581797
 H         -7.3336330124        3.0569685540        0.6372247379
 H         -7.3014864906        3.8705852172       -0.9227388168
 C         -7.3379503542        1.7461919137       -1.0687299218
 H         -7.1183148212        1.8274589650       -2.1353890239
 H         -8.4228636498        1.6702652921       -0.9649345590
 C         -6.7035153706        0.4574827480       -0.5426681759
 H         -6.6478489578        0.4759607551        0.5451852555
 H         -7.3588482105       -0.3728050399       -0.8140827099
 C         -5.3150198600        0.1707637264       -1.1339441933
 H         -5.2811407734       -0.8554229896       -1.5122022778
 H         -5.1360130919        0.8151979610       -1.9990468236
 H         -4.8802043929        2.8959510272       -1.1479822931
 H         -5.1815865349        4.2742066806       -0.1052960314
 H         -5.5702688248        2.1771790901        1.6621139031
 H         -4.1203088074        3.1490513338        1.5274843319
 O         -2.8347237283        1.2794184503        1.5008091579
 C         -1.8961575861        0.2673585110        1.4865697525
 O         -0.9825362567        0.4073601132        2.3261559983
 H          1.5660514138       -0.9640735478        0.8252633730
 C          1.3024996633       -1.1812227375       -0.1995084026
 C          0.0273280235       -1.6381919624       -0.5029882163
 C         -0.2970193101       -1.8886679869       -1.8323716990
 C          0.6380502606       -1.6804368440       -2.8293957963
 C          1.9069370696       -1.2214427357       -2.5243032024
 C          2.2424668891       -0.9708894568       -1.1985714677
 N          3.5411813615       -0.5475571012       -0.8638854574
 S          3.7571991848        0.5286691449        0.4186067634
 O          3.6538010714       -0.1979052648        1.6586385462
 O          2.8891868723        1.6745451622        0.2585560541
 C          5.4572351943        0.9927325201        0.1427097294
 C          5.7475679113        2.1909335647       -0.4813909984
 C          7.0735352302        2.5215213590       -0.7145962992
 C          8.0806631274        1.6516428284       -0.3249112199
 C          7.7737828832        0.4526309849        0.3014950123
 C          6.4505528536        0.1168640893        0.5389406313
 H          6.1637125178       -0.7981507720        1.0302229699
 H          8.5595351052       -0.2198831340        0.6055712102
 H          9.1113940316        1.9111396070       -0.5078974849
 H          7.3150193779        3.4544325712       -1.1979739619
 H          4.9315391725        2.8387195849       -0.7591832298
 H          4.0691333101       -0.2505102195       -1.6739963758
 H          2.6345237695       -1.0591450655       -3.3051634904
 H          0.3737340581       -1.8728904052       -3.8583032096
 H         -1.2935296838       -2.2213135900       -2.0764778358
 C         -0.9690866874       -1.8476051596        0.6128283862
 H         -0.4363940055       -1.6883755305        1.5608825592
 C         -1.5212450403       -3.2599194825        0.6071723198
 C         -0.6508042973       -4.3755289122        1.0981313550
 C         -1.8283597853       -3.9294706636        1.9109459356
 H         -2.6924878333       -4.5741969206        1.9675402078
 H         -1.6410650698       -3.3696665459        2.8162912973
 H          0.3361401175       -4.1175643159        1.4529937701
 H         -0.7039259764       -5.3294349232        0.5965845188
 H         -2.1845395745       -3.4624471527       -0.2225816748
 O         -3.3340125381       -1.7302728287       -1.1682113198
