  62
        -98.94801575
 C          1.2645921504        1.0332117696       -0.0083942794
 C          1.6272286004       -0.0552812804        0.8196146906
 C          2.6753367506       -0.9408664903        0.2981992207
 C          3.1724256007       -0.7157555402       -0.9317023893
 C          4.2730902608       -1.5119588100       -1.5696694292
 C          5.6496153007       -0.9058233899       -1.2614480291
 C          5.8726860706       -0.6001764899        0.2196423809
 H          6.8852012005       -0.2037138798        0.3207830110
 H          5.1846253304        0.1905111500        0.5269911209
 C          5.7015954006       -1.8094982200        1.1494734709
 H          6.5263569606       -1.8208916599        1.8650830409
 H          5.7610330007       -2.7325363100        0.5716440008
 C          4.4061943005       -1.8049455802        1.9630809908
 H          4.2973009204       -0.8438861702        2.4718373608
 H          4.4854175906       -2.5767841202        2.7332308607
 C          3.1207468306       -2.0794373603        1.1720065406
 H          3.2347855808       -2.9930902502        0.5843477606
 H          2.3123638606       -2.2385661904        1.8921216806
 H          6.4171199708       -1.5981173998       -1.6122534091
 H          5.7497329306        0.0260389902       -1.8226935690
 H          4.2256709909       -2.5385782400       -1.2109358993
 H          4.1163146709       -1.5090424800       -2.6498333093
 O          2.7549418006        0.3032511098       -1.7254045493
 C          1.7930841805        1.2028931897       -1.2876263493
 O          1.5025543505        2.0870043297       -2.1157752293
 H         -0.8338294394       -0.2016609706       -0.6155456996
 C         -1.4343570495        0.6652663794       -0.8434331596
 C         -1.0304963997        1.9161737994       -0.3982303495
 C         -1.8037668698        3.0194350293       -0.7379782595
 C         -2.9406937397        2.8640854992       -1.5123636696
 C         -3.3481185795        1.6126492892       -1.9380837997
 C         -2.5843601094        0.5021234793       -1.5978903397
 N         -2.9574257193       -0.7917491707       -1.9925740498
 S         -2.6954171492       -2.0661883008       -0.9401055798
 O         -1.3041613692       -2.4445545906       -0.9411785197
 O         -3.6232941191       -3.0864361609       -1.3817144599
 C         -3.1983600194       -1.4454365009        0.6553655802
 C         -4.5479794494       -1.2109282411        0.8404590601
 C         -4.9807687896       -0.6793848212        2.0434288001
 C         -4.0592997297       -0.3855543611        3.0376133202
 C         -2.7104304897       -0.6319761310        2.8390166202
 C         -2.2709422295       -1.1674275909        1.6378321803
 H         -1.2232608295       -1.3585206907        1.4645557803
 H         -1.9850045997       -0.4063637709        3.6045625903
 H         -4.3931424198        0.0350936188        3.9730061301
 H         -6.0305608596       -0.4921229013        2.2013503900
 H         -5.2335277493       -1.4626139611        0.0475977700
 H         -3.8545915992       -0.8573567408       -2.4502170299
 H         -4.2397108894        1.4938251091       -2.5341861798
 H         -3.5255017397        3.7308869492       -1.7798640996
 H         -1.5119676299        4.0015210893       -0.4039766894
 C          0.1990906703        1.9988439995        0.4735160006
 H         -0.0838518998        1.6413092394        1.4760311706
 C          0.7592061001        3.4005403195        0.5979659507
 C          0.2428753299        4.3317844794        1.6528393207
 C          1.6102479200        3.7341634695        1.7856715508
 H          2.4712357899        4.3694495096        1.6415208909
 H          1.7608978200        2.9566978095        2.5206484908
 H         -0.5336903901        3.9655108193        2.3070151907
 H          0.1666016498        5.3830362294        1.4194003208
 H          1.0506375601        3.8172817896       -0.3594630892
 O          1.0957498204       -0.2757246805        1.9421403106
