  62
        -98.94298284
 C          2.6763472473        1.1968438531        0.1349727110
 C          2.7065428824        0.2024005350       -0.8718583162
 C          3.9115591704       -0.6392574384       -0.9005175098
 C          4.8966255144       -0.4125246518       -0.0123442667
 C          6.1508991324       -1.2283378160        0.1040020695
 C          5.9728660138       -2.3809667527        1.1022847327
 C          4.7053179621       -3.2051019797        0.8758348288
 H          4.7022884653       -4.0065626513        1.6177968302
 H          3.8320638617       -2.5796644629        1.0752771851
 C          4.5831502799       -3.8093911735       -0.5299468946
 H          4.2617373676       -4.8488683313       -0.4369698532
 H          5.5589446477       -3.8145787824       -1.0170208867
 C          3.5683327048       -3.1091865159       -1.4357125038
 H          3.4031824026       -3.7407928868       -2.3126377399
 H          2.6122807901       -3.0170895207       -0.9139406805
 C          3.9745593717       -1.7197884544       -1.9429980147
 H          4.9691544444       -1.7670762146       -2.3910376056
 H          3.2606602782       -1.4280478555       -2.7188033168
 H          6.8477369933       -3.0305444107        1.0386690772
 H          5.9332577056       -1.9624012180        2.1106532603
 H          6.9535261306       -0.5770410689        0.4540723841
 H          6.4156336496       -1.6201816344       -0.8760738502
 O          4.8394995988        0.5680181049        0.9255057748
 C          3.7270899296        1.3860301233        1.0320369159
 O          3.7918077526        2.2291347557        1.9499204292
 O          1.7786623907        0.0259359256       -1.7035955978
 C          1.4676688387        2.1067537093        0.2605244101
 C          0.2231240206        1.2806728325        0.4784757887
 C          0.2181787343        0.3379787881        1.5037678604
 C         -0.8983497938       -0.4375554379        1.7467059649
 C         -2.0376776995       -0.2916426197        0.9738904361
 C         -2.0495682891        0.6534568048       -0.0413654361
 C         -0.9255107141        1.4362078618       -0.2799111181
 H         -0.9519531641        2.1650268533       -1.0749856642
 N         -3.1977037562        0.8030552262       -0.8343961594
 S         -4.6996886699        0.8960525567       -0.0965940253
 O         -5.5374416343        1.6043579988       -1.0395066351
 O         -4.6044081056        1.4628475524        1.2286142637
 C         -5.2391623975       -0.7981238280        0.0001169085
 C         -5.2692986456       -1.5408957821       -1.1637980279
 C         -5.6954612650       -2.8581011481       -1.1058582102
 C         -6.0845943241       -3.4065467515        0.1072561818
 C         -6.0523302638       -2.6465331518        1.2662951606
 C         -5.6263352268       -1.3283236569        1.2151390336
 H         -5.5800929632       -0.7014770036        2.0915593385
 H         -6.3558042675       -3.0744474965        2.2082977915
 H         -6.4154910455       -4.4322868673        0.1492949032
 H         -5.7218342060       -3.4524794958       -2.0049869690
 H         -4.9615259611       -1.0782945256       -2.0866884452
 H         -3.1051726234        1.4866078427       -1.5713181357
 H         -2.9105452912       -0.8970659089        1.1551023436
 H         -0.8827843163       -1.1664223136        2.5430357789
 H          1.1085900750        0.2224306720        2.1076599689
 H          1.6340152352        2.7114436013        1.1642094399
 C          1.3897819253        3.0333234217       -0.9348974429
 C          0.7281970166        4.3722146605       -0.8102196795
 C          2.2187874168        4.2809064022       -0.9357934325
 H          2.6796133377        4.5939413887       -1.8606203149
 H          2.8213550659        4.4753754538       -0.0603669118
 H          0.1674489122        4.7530976659       -1.6509071448
 H          0.3151947922        4.6389587387        0.1511183574
 H          1.2936413833        2.4975470209       -1.8724674796
