  62
        -98.94074133
 C          2.5739681058        1.3806784014        0.2286668988
 C          2.7841792568        0.5207304200       -0.8768396506
 C          3.6653412156       -0.6334421804       -0.6352064576
 C          4.2064254737       -0.8160805669        0.5820153787
 C          5.0765671703       -1.9743006074        0.9735616023
 C          4.2440159993       -3.1267674493        1.5519499024
 C          3.0381578720       -3.5108711834        0.6939440186
 H          2.3191961792       -2.6872910862        0.6939665641
 H          2.5479914655       -4.3568711064        1.1810401763
 C          3.3819646440       -3.8852668130       -0.7546555105
 H          2.8250421370       -4.7854088310       -1.0234876091
 H          4.4432522899       -4.1237666192       -0.8338399161
 C          3.0238814941       -2.8165274437       -1.7891142240
 H          1.9844564053       -2.5071249069       -1.6465231044
 H          3.0959208715       -3.2680877315       -2.7823236344
 C          3.9099264855       -1.5639565045       -1.7900041218
 H          3.6748227882       -0.9918074402       -2.6923206026
 H          4.9604301745       -1.8579256970       -1.8332311144
 H          3.8796744949       -2.8309829217        2.5384404405
 H          4.8945445927       -3.9944618218        1.6754121320
 H          5.7816411477       -1.6318444420        1.7328180356
 H          5.6323488402       -2.3152585815        0.1023006940
 O          3.9808907706        0.0273141240        1.6208618309
 C          3.1571929229        1.1293275868        1.4748039006
 O          3.0305345999        1.8117453516        2.5107996577
 O          2.2749332351        0.6873159995       -2.0166286708
 C          1.6954317168        2.6223015271        0.1641431150
 C          0.2547285646        2.2406863929        0.3869602500
 C         -0.4738479131        2.7588602614        1.4502706737
 C         -1.7832414744        2.3630666219        1.6641744675
 C         -2.3905412472        1.4467118992        0.8243070013
 C         -1.6678439228        0.9184748204       -0.2377614796
 C         -0.3582404649        1.3189519172       -0.4518664652
 H          0.2032130511        0.9051868643       -1.2770939582
 N         -2.2746191839       -0.0196976284       -1.0967703851
 S         -2.8757390076       -1.4137607561       -0.3730841078
 O         -2.1532445129       -1.7329786169        0.8377725002
 O         -2.8692696641       -2.4206762935       -1.4116997358
 C         -4.5611981158       -0.9870068288        0.0106200925
 C         -5.3740346515       -0.5625044813       -1.0224464507
 C         -6.6887669853       -0.2251894810       -0.7436221425
 C         -7.1663426890       -0.3199227271        0.5552930921
 C         -6.3386150943       -0.7514965665        1.5804714298
 C         -5.0218264220       -1.0895843339        1.3084895286
 H         -4.3390389091       -1.4229314283        2.0738290876
 H         -6.7115081192       -0.8247792552        2.5894710785
 H         -8.1897649622       -0.0558052482        0.7700570055
 H         -7.3353136920        0.1112798003       -1.5379918874
 H         -4.9635199256       -0.5055296166       -2.0167395822
 H         -1.6870831323       -0.2660061114       -1.8817773670
 H         -3.4087058568        1.1331670766        0.9880705901
 H         -2.3368440825        2.7717379028        2.4956703681
 H         -0.0004342689        3.4603945731        2.1216064421
 H          2.0123237502        3.2375951848        1.0201828159
 C          1.9251590895        3.4424090062       -1.0998107142
 C          0.8586824887        3.7361335218       -2.1088788058
 C          1.3458457917        4.8227428225       -1.2017724318
 H          1.9558078033        5.6126508128       -1.6128943031
 H          0.6872466105        5.1398325726       -0.4070601070
 H          1.1494529704        3.7558187481       -3.1483135587
 H         -0.1311708650        3.3415335620       -1.9420583486
 H          2.9276624147        3.3091483851       -1.4926452022
