  62
        -98.94267495
 C          1.4144775501        1.0784825990       -0.7959787679
 C          1.0669306463        1.9408730324        0.2695484378
 C         -0.1796815696        2.7111709130        0.1084712064
 C         -0.9375604553        2.5190769117       -0.9841636938
 C         -2.2176436050        3.2085188207       -1.3909581221
 C         -3.2481446659        3.5235821557       -0.3014357117
 C         -3.3728028435        2.4654607262        0.8044066571
 H         -4.4228083221        2.1880716765        0.9186540083
 H         -2.8255265096        1.5588102331        0.5383198105
 C         -2.8602422978        2.9537207779        2.1603708069
 H         -3.1958988223        3.9806686761        2.3247868752
 H         -3.2995197026        2.3307236675        2.9433093121
 C         -1.3439623245        2.8796804277        2.3244728912
 H         -1.0351712841        1.8302398254        2.3172003142
 H         -1.0863099430        3.2875030902        3.3054006764
 C         -0.5311675442        3.6217009095        1.2495329243
 H         -1.0513929426        4.5144548953        0.9091624938
 H          0.4207396649        3.9230393733        1.6956439390
 H         -3.0160439722        4.4856025460        0.1532446780
 H         -4.2102744783        3.6382067054       -0.8043824918
 H         -1.9490475920        4.1371757462       -1.9042620616
 H         -2.6692089254        2.5509344254       -2.1383108704
 O         -0.5885641151        1.6355004760       -1.9639181976
 C          0.5762968072        0.8920036934       -1.8923981007
 O          0.7493043604        0.1120596299       -2.8513709855
 H          0.5393325556       -1.2569885867       -0.1895159547
 C          1.2913618251       -1.4015220570        0.5727627282
 C          2.5004837723       -0.7262703794        0.4650258554
 C          3.4677488452       -0.9389580526        1.4374706100
 C          3.2065940479       -1.7803373633        2.5062313885
 C          1.9801472797       -2.4055906917        2.6382190247
 C          1.0110788100       -2.2093900656        1.6604196027
 N         -0.2503037281       -2.8194370739        1.7384003921
 S         -1.5882354043       -1.9731866172        1.1880790563
 O         -1.4566172154       -0.5523219728        1.4039397267
 O         -2.7099292249       -2.6099613641        1.8491259243
 C         -1.6710098881       -2.3395880916       -0.5512055901
 C         -2.0944876796       -1.3556661051       -1.4212809462
 C         -2.1824849575       -1.6443309562       -2.7731548853
 C         -1.8519311511       -2.9106285642       -3.2283316579
 C         -1.4369864753       -3.8919770320       -2.3409362024
 C         -1.3466312944       -3.6086107354       -0.9878711390
 H         -1.0207297620       -4.3434106661       -0.2707029824
 H         -1.1786056173       -4.8749555102       -2.7007808461
 H         -1.9138053875       -3.1298619506       -4.2825603502
 H         -2.4928661013       -0.8759434873       -3.4627879869
 H         -2.3256214832       -0.3767186077       -1.0302799385
 H         -0.4396041686       -3.3113204334        2.5995623255
 H          1.7690232642       -3.0344619891        3.4897038291
 H          3.9634077451       -1.9341736192        3.2605309183
 H          4.4185022636       -0.4363669036        1.3684955985
 C          2.6604497957        0.2133326162       -0.7060505255
 H          2.6787189037       -0.3880638415       -1.6269957902
 C          3.9128619475        1.0601876160       -0.6468313818
 C          5.2125850580        0.5161676280       -1.1570670877
 C          4.4935206927        1.5828812320       -1.9252511527
 H          4.9044681493        2.5811657027       -1.9344230228
 H          3.9968866687        1.3070913972       -2.8442910162
 H          6.1220466124        0.7839456415       -0.6407854614
 H          5.2115145816       -0.4850897498       -1.5604764449
 H          3.9324755154        1.7150705245        0.2162841296
 O          1.7732936437        2.0842485832        1.3017022504
