  62
        -98.93851674
 C         -2.3669946546       -1.2376978239        0.2474142148
 C         -2.3958036153        0.0212395995       -0.3955076468
 C         -3.4274648583        0.9712536444        0.0636835707
 C         -4.2745508422        0.6101915068        1.0452139620
 C         -5.3890522555        1.3698898823        1.7343578583
 C         -5.9306638968        2.6701583156        1.1462407128
 C         -6.6830909503        2.5107104490       -0.1744611897
 H         -6.9325969719        3.5063967377       -0.5475210446
 H         -7.6204759691        1.9841671258        0.0214815343
 C         -5.9436601705        1.7419473898       -1.2665680869
 H         -6.5938364273        1.7004503342       -2.1446428632
 H         -5.7756871975        0.7131369744       -0.9418540538
 C         -4.6112728106        2.3468571857       -1.7047005345
 H         -4.7576159370        3.3885515388       -1.9969991285
 H         -4.2738725103        1.7966099040       -2.5872513207
 C         -3.4810797898        2.2846859945       -0.6624794507
 H         -3.5459763736        3.1102028004        0.0424582559
 H         -2.5274959473        2.3827266877       -1.1902330515
 H         -5.1320045021        3.3991379548        1.0448081717
 H         -6.6346279855        3.0729443096        1.8795577781
 H         -6.2120334931        0.6561545023        1.8419142387
 H         -5.0248511690        1.5739772598        2.7473475364
 O         -4.1972799032       -0.6140697040        1.6452704591
 C         -3.2557933505       -1.5548167393        1.2751418675
 O         -3.3128492707       -2.6197864702        1.9213440510
 H          0.6042418659       -1.1163510287       -1.6782336731
 C          0.8874484806       -1.1927609731       -0.6407070224
 C          0.0246426330       -1.7817635477        0.2687943494
 C          0.4032908889       -1.8377130615        1.6076965448
 C          1.6171567595       -1.3219353493        2.0194220935
 C          2.4756173244       -0.7304997523        1.1080161002
 C          2.0987738513       -0.6533914363       -0.2251526019
 N          2.9575056514       -0.0505134759       -1.1588786494
 S          3.7003631422        1.3985240889       -0.7567462469
 O          2.9102676745        2.1758701001        0.1697159557
 O          4.0100610077        2.0263982925       -2.0230431919
 C          5.2225674512        0.8877901732        0.0164455146
 C          5.5974570162        1.4388511078        1.2260731297
 C          6.7942166167        1.0416332939        1.8022483424
 C          7.5914254726        0.1058786537        1.1613944873
 C          7.2017670721       -0.4367986210       -0.0540926628
 C          6.0076421833       -0.0426668889       -0.6361150098
 H          5.6706741502       -0.4390748539       -1.5791992221
 H          7.8239569213       -1.1649714271       -0.5490200224
 H          8.5214802990       -0.2024407601        1.6121821701
 H          7.0983280045        1.4627835350        2.7470712863
 H          4.9420534708        2.1579647290        1.6914772188
 H          2.5703011158       -0.0067617219       -2.0907394102
 H          3.4180767841       -0.3144037858        1.4245741473
 H          1.8990032466       -1.3767345213        3.0600215684
 H         -0.2768824704       -2.2809864035        2.3222387102
 C         -1.3388665321       -2.2941669656       -0.1257868562
 H         -1.5677249654       -3.1676394559        0.4991949040
 C         -1.4523033217       -2.6952753100       -1.5814536228
 C         -0.7965469097       -3.9592687291       -2.0476778113
 C         -2.2897009025       -3.8820869718       -1.9474800613
 H         -2.8676559820       -3.8423903427       -2.8586919795
 H         -2.7783574603       -4.4147639200       -1.1446570136
 H         -0.2690962534       -4.5457906542       -1.3108496151
 H         -0.3480119504       -3.9774033383       -3.0291985490
 H         -1.4723724882       -1.8510564876       -2.2595827755
 O         -1.6027345922        0.3533792907       -1.3162966404
