  62
        -98.94299000
 C         -1.8182315299       -1.3359199615       -0.0560073152
 C         -3.1481256517       -1.2037526132        0.4253233586
 C         -3.9451674924       -0.1159091884       -0.1509147348
 C         -3.3923312565        0.7032286833       -1.0631250857
 C         -4.0743364882        1.8550366580       -1.7502215652
 C         -4.0814304501        3.1553880676       -0.9346438112
 C         -5.0303787776        3.1674163159        0.2644540034
 H         -5.1009076078        4.2018312643        0.6066278543
 H         -6.0268731907        2.8638493270       -0.0581541763
 C         -4.5771217916        2.2895053081        1.4394337022
 H         -3.5167890229        2.0508989506        1.3288327361
 H         -4.6835800982        2.8468228036        2.3728162179
 C         -5.3625561758        0.9877343845        1.5980832065
 H         -6.4025234578        1.2138501236        1.8441576647
 H         -4.9337264847        0.4274856698        2.4328537223
 C         -5.3403520872        0.0822491720        0.3598696618
 H         -5.7332410511       -0.8969295557        0.6451178941
 H         -5.9753430564        0.4984971865       -0.4222153047
 H         -3.0642492884        3.3612798987       -0.5942109090
 H         -4.3756901766        3.9612131434       -1.6110234789
 H         -3.5260848860        2.0331361450       -2.6779432214
 H         -5.0983941940        1.5767055669       -2.0013741903
 O         -2.1126709272        0.5552013543       -1.4904726949
 C         -1.2911145921       -0.4583305846       -1.0056297961
 O         -0.1537717269       -0.4500991851       -1.5101396165
 H          1.4478525001       -2.4580391124       -0.7067003322
 C          1.4834748144       -1.9406368457        0.2390736677
 C          0.3426988137       -1.8596038358        1.0207339815
 C          0.4048610493       -1.1606299664        2.2225200452
 C          1.5833068436       -0.5652394283        2.6331797511
 C          2.7169267002       -0.6321412112        1.8418015559
 C          2.6565065532       -1.3099098213        0.6312795971
 N          3.7821687097       -1.3429099242       -0.2071713286
 S          4.7301840106        0.0264026291       -0.3282604081
 O          5.3216089749       -0.0387160965       -1.6474839529
 O          5.6701218624        0.0528240004        0.7674605826
 C          3.6548294780        1.4492692866       -0.2061458967
 C          4.0935030503        2.5325496797        0.5304287167
 C          3.2951494106        3.6615641559        0.6114456682
 C          2.0715992580        3.6884341417       -0.0402060102
 C          1.6458035714        2.5928143067       -0.7739647353
 C          2.4424689521        1.4621151897       -0.8658158552
 H          2.0966669044        0.6046929365       -1.4208057201
 H          0.6904051806        2.5951659724       -1.2751646157
 H          1.4458670689        4.5647564960        0.0252707028
 H          3.6264862987        4.5133069590        1.1834387588
 H          5.0460328593        2.4642857844        1.0308329315
 H          3.5979783147       -1.7385342527       -1.1175283231
 H          3.6422011800       -0.1669364705        2.1420423572
 H          1.6196896466       -0.0346422790        3.5723472171
 H         -0.4866172978       -1.0827485660        2.8292995060
 C         -0.9693279549       -2.4368407752        0.5584551105
 H         -1.5386232162       -2.7543782479        1.4466728485
 C         -0.7984516128       -3.6745948312       -0.3097741056
 C         -1.9549966316       -4.2126411974       -1.0967025925
 C         -0.7697787465       -3.6344095064       -1.8070934734
 H         -0.1019289958       -4.3109804793       -2.3209403041
 H         -0.8764774921       -2.6775476488       -2.2932358238
 H         -2.1072229619       -5.2808787915       -1.1290277240
 H         -2.8709950333       -3.6400634301       -1.0846585648
 H         -0.1545899206       -4.4089515704        0.1654548055
 O         -3.6469423566       -1.9643020983        1.2963202088
