  62
        -98.94036585
 C         -1.7851786967        0.6527526130       -0.9575351994
 C         -2.0111686880        0.3146497813        0.3997608950
 C         -3.4020481568        0.4392312000        0.8662312859
 C         -4.3543421945        0.8578785568        0.0141873241
 C         -5.8131950396        0.9771323605        0.3453137076
 C         -6.5648356956       -0.3194006154        0.0126219905
 C         -5.8941074560       -1.5801698216        0.5583566814
 H         -6.5281259720       -2.4279094008        0.2893070125
 H         -4.9364124543       -1.7228410360        0.0522868323
 C         -5.6672406989       -1.5727142288        2.0765653708
 H         -5.9643999108       -2.5434983530        2.4789473706
 H         -6.3050295102       -0.8205511014        2.5423675375
 C         -4.2158311097       -1.3402973457        2.5010252604
 H         -4.1329427626       -1.5719272109        3.5662476494
 H         -3.5609472242       -2.0317109582        1.9644511719
 C         -3.6806347402        0.0830246174        2.2994242360
 H         -4.3675933216        0.8020665335        2.7501860080
 H         -2.7197081341        0.1515820450        2.8174704456
 H         -6.6328473307       -0.4111446813       -1.0739573378
 H         -7.5783104269       -0.2429252958        0.4106570653
 H         -5.9230983233        1.2124447380        1.4020441255
 H         -6.2346356452        1.7923891135       -0.2452953353
 O         -4.0991811365        1.1741523770       -1.2814912398
 C         -2.8216793260        1.0550100022       -1.8035950330
 O         -2.7380770823        1.3287644787       -3.0176873115
 H          2.0268117737        0.0627879652       -0.3540251589
 C          1.4814770491       -0.8379885290       -0.5778886682
 C          0.2351364313       -0.7723441233       -1.1780436284
 C         -0.4467073844       -1.9616535738       -1.4268277385
 C          0.0979477828       -3.1781457769       -1.0678292693
 C          1.3494609329       -3.2391707004       -0.4790744848
 C          2.0427657970       -2.0611630713       -0.2372955401
 N          3.3122512857       -2.0786335363        0.3604429852
 S          4.5075112316       -1.0744363863       -0.2407583795
 O          4.3606321450       -0.8668312363       -1.6630641090
 O          5.7488115211       -1.6864228971        0.1849433830
 C          4.3041582644        0.4652467372        0.6287510394
 C          4.4158458611        1.6518176695       -0.0684788978
 C          4.3037060693        2.8487690718        0.6215610011
 C          4.0840444172        2.8374103941        1.9905959430
 C          3.9739802656        1.6367804343        2.6756111528
 C          4.0886368363        0.4369889942        1.9921608039
 H          4.0081570701       -0.5138019082        2.4917912877
 H          3.7987826312        1.6326675007        3.7393429885
 H          3.9943387298        3.7699752373        2.5252313480
 H          4.3864052702        3.7833208415        0.0894054700
 H          4.5766923092        1.6141939279       -1.1343191716
 H          3.6691928114       -2.9980229925        0.5762438968
 H          1.7816244893       -4.1898478950       -0.2050350832
 H         -0.4496366702       -4.0896385818       -1.2565071740
 H         -1.4204007759       -1.9156217824       -1.8970060923
 C         -0.4085025108        0.5298091853       -1.5876130867
 H         -0.5965808378        0.4775321862       -2.6736164646
 C          0.4900281426        1.7371122303       -1.3627430428
 C         -0.0873379663        3.1041232869       -1.1520996450
 C          0.6092049298        2.4036105324       -0.0263019192
 H          1.5803216044        2.7632171822        0.2810282632
 H          0.0157332943        2.0054898265        0.7808513653
 H          0.4036923295        3.9431587007       -1.6215705785
 H         -1.1635188336        3.1932581708       -1.1163648915
 H          1.3922112702        1.6853900154       -1.9659082591
 O         -1.1123231179       -0.0716794867        1.1894983769
