  62
        -98.94008657
 C          2.6209862040        1.1509599876        0.2746221686
 C          2.5769995060        0.3129571723       -0.8674258572
 C          3.4510457671       -0.8708941593       -0.8267852214
 C          4.2137892248       -1.0973921498        0.2571175283
 C          5.1007493861       -2.2925131391        0.4499519667
 C          4.3508258748       -3.4303799576        1.1570320604
 C          2.9861677255       -3.7461661736        0.5440944363
 H          2.5632243977       -4.5817786346        1.1062314430
 H          2.3216012570       -2.8914423603        0.6925021552
 C          3.0269241811       -4.1016095634       -0.9488271942
 H          2.3944160065       -4.9756722901       -1.1171918278
 H          4.0425260343       -4.3767810003       -1.2355411382
 C          2.5192821901       -2.9979353118       -1.8788472019
 H          2.3866313268       -3.4278551501       -2.8750704732
 H          1.5395468168       -2.6519585239       -1.5390341889
 C          3.4354944905       -1.7765666104       -2.0259691640
 H          4.4468377856       -2.1020494611       -2.2774427420
 H          3.0512565982       -1.1725187395       -2.8530050616
 H          4.1997616562       -3.1486659010        2.2019103580
 H          4.9773285166       -4.3238158181        1.1339167727
 H          5.4639094404       -2.6292073710       -0.5190086798
 H          5.9522606705       -1.9941696442        1.0638906539
 O          4.2183156336       -0.2788243468        1.3410764538
 C          3.4086496763        0.8447488460        1.3865752426
 O          3.4723934428        1.4769491636        2.4607418829
 H          0.2060720803        0.4754903413        1.3741906464
 C         -0.3154999211        1.0149277661        0.5911681612
 C          0.3377923733        2.0568846321       -0.0571985659
 C         -0.3425312983        2.7446077451       -1.0523570115
 C         -1.6345367554        2.3837173046       -1.3940083975
 C         -2.2732508441        1.3357370831       -0.7581664224
 C         -1.6044386190        0.6436604312        0.2433691304
 N         -2.2387907709       -0.4360753917        0.8843465216
 S         -3.7762583851       -0.1894083832        1.5128537623
 O         -3.9710059409        1.1865360192        1.9084170013
 O         -3.9215665599       -1.1830274890        2.5547231309
 C         -4.8645130949       -0.5997673454        0.1652974448
 C         -4.7301028375       -1.8415983864       -0.4240213197
 C         -5.5754934544       -2.1812973999       -1.4680180728
 C         -6.5375261268       -1.2801972314       -1.8999051950
 C         -6.6620956827       -0.0388540358       -1.2950927571
 C         -5.8186676290        0.3078579678       -0.2509063212
 H         -5.8740703493        1.2636749891        0.2452728473
 H         -7.4106784723        0.6598878271       -1.6323905922
 H         -7.1939532901       -1.5474371597       -2.7129033506
 H         -5.4810855944       -3.1454553692       -1.9411633134
 H         -3.9715941647       -2.5129664602       -0.0571587183
 H         -1.6537465551       -0.9082769819        1.5583221203
 H         -3.2754428017        1.0467759094       -1.0295113580
 H         -2.1488415782        2.9224353164       -2.1752022787
 H          0.1453506483        3.5489309232       -1.5774545744
 C          1.7432371331        2.3859565593        0.3861224133
 H          1.7048713882        2.6090987229        1.4660774193
 C          2.3161675730        3.6243936345       -0.2868546626
 C          3.7949401771        3.7919328492       -0.4661529267
 C          2.9139018540        3.5877745813       -1.6599623980
 H          2.7405686573        4.4284890165       -2.3157900638
 H          2.9411867220        2.6362692777       -2.1660974440
 H          4.4332053148        2.9782762820       -0.1528111646
 H          4.2227261323        4.7692450394       -0.2996327945
 H          1.7641167927        4.5199754842       -0.0181627474
 O          1.8513682711        0.5269395372       -1.8711076271
