  62
        -98.94235264
 C          1.9642846461        0.6262738987       -0.0191316124
 C          2.9697747231        0.5496873421        0.9805073118
 C          4.0876807488       -0.3654947004        0.7206592862
 C          4.0934525136       -1.0855380908       -0.4154229583
 C          5.1911367299       -2.0184195335       -0.8359250831
 C          6.2449395168       -1.2934379391       -1.6847586426
 C          6.7352979018        0.0191179637       -1.0734950505
 H          7.4965386152        0.4249653295       -1.7432821273
 H          5.9094420611        0.7339222021       -1.0546622300
 C          7.3183715761       -0.1169077689        0.3399927439
 H          7.5719761796       -1.1590698871        0.5376636386
 H          8.2454863591        0.4577173307        0.3929818905
 C          6.4080961404        0.4027996775        1.4543506345
 H          6.0750324823        1.4154684166        1.2134021746
 H          6.9965006942        0.4624438625        2.3737787740
 C          5.1709915448       -0.4515909750        1.7584939719
 H          4.7274803031       -0.0766379451        2.6855328744
 H          5.4705497747       -1.4897066087        1.9170494780
 H          5.8106932936       -1.0744112422       -2.6630314516
 H          7.0912464545       -1.9668025235       -1.8322907615
 H          5.6551820267       -2.4459940420        0.0508820284
 H          4.7512348335       -2.8229419223       -1.4279034679
 O          3.1042509323       -1.0080615928       -1.3388144827
 C          2.0178057686       -0.1554464240       -1.1736351262
 O          1.2010226503       -0.2096457001       -2.1124621689
 O          2.9340028736        1.2270947881        2.0423611004
 C          0.8276925949        1.6003035562        0.2404138853
 C         -0.3599163084        0.9151993640        0.8664817076
 C         -0.9493256553        1.4204651706        2.0193261399
 C         -2.0465541506        0.7929996049        2.5841107322
 C         -2.5821861224       -0.3440505082        2.0072530439
 C         -2.0041017503       -0.8531607499        0.8508607005
 C         -0.9013676684       -0.2256263472        0.2892809365
 H         -0.4570257442       -0.6261259261       -0.6100205697
 N         -2.5542615140       -1.9961033946        0.2440699304
 S         -4.2150709493       -2.0168971051        0.0256470757
 O         -4.8537867644       -2.4296356754        1.2510107041
 O         -4.4421048332       -2.8672986069       -1.1211952583
 C         -4.6532004808       -0.3269920362       -0.3425520710
 C         -4.1388566387        0.2410551023       -1.4913720706
 C         -4.4255371365        1.5677471442       -1.7695057271
 C         -5.2150365052        2.3005900773       -0.8965762792
 C         -5.7298261887        1.7139110142        0.2488664323
 C         -5.4464457417        0.3873841201        0.5320916007
 H         -5.8243759712       -0.1076308074        1.4116353911
 H         -6.3456911942        2.2855714865        0.9241486890
 H         -5.4285830554        3.3352501348       -1.1130168095
 H         -4.0239318729        2.0255491843       -2.6591325911
 H         -3.5284949536       -0.3563096504       -2.1507853956
 H         -2.0716048294       -2.2768371947       -0.5971446345
 H         -3.4307238128       -0.8514502942        2.4365338562
 H         -2.4891502393        1.1921345477        3.4836194330
 H         -0.5317555309        2.3026504476        2.4816393466
 H          1.2322572952        2.2999929036        0.9886300043
 C          0.4556115798        2.4223943312       -0.9869306273
 C         -0.8073975388        2.2346842028       -1.7665620581
 C         -0.6374999361        3.4469180457       -0.9044613497
 H         -0.4844815438        4.4051743066       -1.3767942662
 H         -1.2087954581        3.4875078726        0.0105489365
 H         -0.7494673570        2.3408788607       -2.8390631989
 H         -1.4999431382        1.4748437454       -1.4417804058
 H          1.3345614862        2.6950529338       -1.5632490680
