  62
        -98.94965147
 C         -1.6900816296       -1.2240391806        0.3400928498
 C         -1.3292761797       -0.1532885602       -0.5106878597
 C         -1.9057923996        1.1521191396       -0.1768372590
 C         -2.6905136295        1.2766500191        0.9085163812
 C         -3.3236292994        2.5495274389        1.4019891219
 C         -4.6398478695        2.9117213592        0.6997569323
 C         -4.4961893397        3.4119526399       -0.7381860275
 H         -5.4602850998        3.8350314201       -1.0271384971
 H         -3.7637171697        4.2191637699       -0.7676682972
 C         -4.1097716599        2.3250314504       -1.7507824881
 H         -4.2961594898        1.3405520402       -1.3156758285
 H         -4.7437431600        2.4104047409       -2.6360807579
 C         -2.6576169700        2.3887592007       -2.2238375783
 H         -2.4921894400        3.3159018309       -2.7767844278
 H         -2.4821298401        1.5524468010       -2.9048065987
 C         -1.6235086398        2.3036429001       -1.0934975885
 H         -0.6373425398        2.1414683503       -1.5357198987
 H         -1.5977866597        3.2367257398       -0.5305171380
 H         -5.2961594395        2.0385885592        0.7187846520
 H         -5.1161182494        3.6981247789        1.2898993128
 H         -3.5285045092        2.4011572984        2.4647079419
 H         -2.6130090394        3.3707767989        1.3007831222
 O         -2.9916532693        0.2276764387        1.7205270807
 C         -2.5017511394       -1.0416384011        1.4574716800
 O         -2.8536856492       -1.9115352415        2.2824200597
 H          0.4926479707       -1.1573191312        1.6326717495
 C          1.0502350505       -1.7294523809        0.9049850791
 C          0.3783753804       -2.5492604405        0.0071775588
 C          1.1263892502       -3.2814335300       -0.9069223616
 C          2.5057988802       -3.1691908700       -0.9363806818
 C          3.1651500204       -2.3113812104       -0.0750625615
 C          2.4262381105       -1.5832687909        0.8499072090
 N          3.0436324907       -0.6767704413        1.7384552693
 S          2.6432427806        0.9429497988        1.5626056602
 O          3.4649003208        1.6374511583        2.5315907804
 O          1.2197134807        1.1182009687        1.6905907505
 C          3.2008531804        1.3552889896       -0.0817771597
 C          4.4313730804        1.9686292596       -0.2242973996
 C          4.9092472002        2.2300488503       -1.4978226796
 C          4.1562342800        1.8651050508       -2.6039666196
 C          2.9264806900        1.2463231507       -2.4431762497
 C          2.4386709702        0.9845536801       -1.1713473098
 H          1.4814422902        0.5066676500       -1.0281284299
 H          2.3342576799        0.9584442912       -3.2970779198
 H          4.5282102398        2.0643032113       -3.5966314096
 H          5.8647935301        2.7131962603       -1.6235703295
 H          4.9789919505        2.2356676992        0.6652064704
 H          4.0511682407       -0.7614536413        1.7658742591
 H          4.2385159404       -2.2022906304       -0.1156652616
 H          3.0728887001       -3.7433645897       -1.6529320322
 H          0.6272459501       -3.9367277597       -1.6019295719
 C         -1.1286122896       -2.6098561205        0.0803850590
 H         -1.4090763095       -3.2226011509        0.9501456788
 C         -1.7628372098       -3.2032984399       -1.1619354211
 C         -1.9836773298       -4.6814298798       -1.2714084818
 C         -3.1493091498       -3.7626680499       -1.0658093212
 H         -3.8309344899       -3.5979055095       -1.8867682710
 H         -3.6230855796       -3.7412760804       -0.0947831911
 H         -1.8692736500       -5.1504501193       -2.2370741421
 H         -1.6741173297       -5.2968850202       -0.4402542222
 H         -1.5063925500       -2.6535900394       -2.0604334609
 O         -0.5589982499       -0.2824809797       -1.4987225499
