  62
        -98.93643824
 C         -1.0920212713       -1.4646896721        0.5791416006
 C         -1.9465473385       -1.1484835372       -0.5049956106
 C         -3.1128398641       -0.3076802186       -0.1847210526
 C         -3.2806702018        0.1410939190        1.0714481081
 C         -4.3690033597        1.0690054379        1.5315081952
 C         -4.0308671198        2.5181560463        1.1263044519
 C         -4.9835363496        3.1248939102        0.0951624091
 H         -5.9149090952        3.4017801658        0.5938915687
 H         -4.5208683914        4.0430516851       -0.2733569273
 C         -5.3392489677        2.2317702555       -1.0973825659
 H         -6.1070383849        1.5149260338       -0.8022988680
 H         -5.7901727675        2.8777253231       -1.8536754017
 C         -4.1723641009        1.4668669249       -1.7355853946
 H         -4.3106698731        1.4766236886       -2.8187384063
 H         -3.2251049780        1.9690567845       -1.5332882933
 C         -4.0659698464       -0.0091915725       -1.3083677675
 H         -3.6913940193       -0.5909659194       -2.1558041728
 H         -5.0598101039       -0.3908922622       -1.0583898799
 H         -4.0380642872        3.1549426971        2.0125875694
 H         -3.0088913348        2.5383918824        0.7390586973
 H         -4.4303374734        0.9847135897        2.6168667236
 H         -5.3206008544        0.7629369346        1.1025175209
 O         -2.4099163860       -0.1404901497        2.0756865373
 C         -1.2879632945       -0.9207945745        1.8500146541
 O         -0.5481814745       -1.0528154427        2.8463870517
 O         -1.7577589472       -1.5420929172       -1.6849563431
 C          0.1695352199       -2.2877981549        0.3837133703
 C          0.9515876757       -1.7487993295       -0.7899013896
 C          1.4955376958       -2.5313718710       -1.7992881513
 C          2.2263105790       -1.9440924724       -2.8184794357
 C          2.4504097931       -0.5796394878       -2.8430649286
 C          1.9068947424        0.2121930226       -1.8375673160
 C          1.1649273984       -0.3771533368       -0.8290606926
 H          0.7180540406        0.2486309493       -0.0714950826
 N          2.1026510953        1.6015742300       -1.8132736428
 S          2.2370278554        2.3808793115       -0.3417149192
 O          0.9395929098        2.5366734197        0.2690422215
 O          2.9348734760        3.6107806514       -0.6520810831
 C          3.2864074042        1.3249148596        0.6425965224
 C          2.7908346787        0.6646391944        1.7478759060
 C          3.6295835025       -0.1852883309        2.4523088369
 C          4.9423017294       -0.3584768435        2.0433382540
 C          5.4293825182        0.3206439422        0.9364941132
 C          4.5950753188        1.1681354886        0.2271986037
 H          4.9398660069        1.7201025460       -0.6319727520
 H          6.4524636428        0.1885340810        0.6237212903
 H          5.5881704261       -1.0249755032        2.5927304745
 H          3.2421272221       -0.7106621815        3.3109466511
 H          1.7631909425        0.8102964719        2.0442808499
 H          2.7502836636        1.9586442414       -2.4997129567
 H          3.0247247749       -0.1269446331       -3.6365914979
 H          2.6343160620       -2.5614806725       -3.6042385354
 H          1.3305133618       -3.5960756524       -1.8029453263
 H          0.7713868560       -2.0899262695        1.2873087675
 C         -0.0494211796       -3.7927805381        0.3370259600
 C         -1.2840118903       -4.4164727787        0.9150674478
 C         -1.0599641982       -4.4316438685       -0.5657633838
 H         -0.8057930660       -5.3716886981       -1.0335685772
 H         -1.6554009268       -3.7796513932       -1.1841113214
 H         -1.1823599304       -5.3407670705        1.4640723064
 H         -2.0411838077       -3.7544312814        1.3105761984
 H          0.8754044051       -4.3394743999        0.4929959641
