  62
        -98.93850002
 C         -2.4005098809        1.1750126990        0.0712832121
 C         -3.5075589213        0.8259470202       -0.7408011160
 C         -4.4617433416       -0.1420582385       -0.1762535871
 C         -4.2317294405       -0.6558362711        1.0442418163
 C         -5.0775865225       -1.6221193921        1.8359769714
 C         -5.7222286015       -2.7905280520        1.0797567537
 C         -4.8812808081       -3.3569766307       -0.0735280675
 H         -4.8005699631       -4.4392529457        0.0440777462
 H         -3.8690859392       -2.9500156947       -0.0335770666
 C         -5.4901130748       -3.0774332305       -1.4496017835
 H         -6.5664421160       -3.2557614193       -1.3992783649
 H         -5.0739608027       -3.7877068126       -2.1680598933
 C         -5.2402469413       -1.6751236685       -2.0025329304
 H         -5.8107755308       -1.5720582174       -2.9286147146
 H         -4.1841621530       -1.5629648592       -2.2624835458
 C         -5.6146106503       -0.5171915779       -1.0628904167
 H         -6.5066060191       -0.7494787167       -0.4865355680
 H         -5.8175156314        0.3627079004       -1.6793111505
 H         -6.6941594036       -2.4850381760        0.6952014909
 H         -5.9082238169       -3.5753859778        1.8149937914
 H         -5.8597577365       -1.0494768552        2.3433129059
 H         -4.4119473377       -2.0110671646        2.6106527279
 O         -3.1398547156       -0.3087992394        1.7833568154
 C         -2.2023087798        0.6046545248        1.3273070005
 O         -1.2711296617        0.8159525701        2.1291309052
 O         -3.6997776544        1.3149838975       -1.8852493022
 C         -1.3971317369        2.1760238627       -0.4778336788
 C         -0.0999725050        1.4533278690       -0.7420320268
 C          0.0358386546        0.7062538253       -1.9092812179
 C          1.1870855650       -0.0179989456       -2.1533302052
 C          2.2245044608       -0.0200600377       -1.2363969333
 C          2.0909424959        0.7065142300       -0.0615955230
 C          0.9412233422        1.4503410703        0.1722251000
 H          0.8458354088        1.9992405402        1.0954835234
 N          3.1336743679        0.7085975498        0.8797953512
 S          3.8746203327       -0.7459576555        1.2656375779
 O          2.9804233504       -1.8697113781        1.1073225543
 O          4.4319510747       -0.5470776518        2.5860314733
 C          5.2099597368       -0.8557225196        0.0904330242
 C          5.3918983512       -2.0137683260       -0.6397846131
 C          6.4453094666       -2.0816616212       -1.5385797962
 C          7.2943484686       -0.9962477863       -1.6898413367
 C          7.0998308291        0.1587980088       -0.9470244749
 C          6.0496393963        0.2325336164       -0.0461186538
 H          5.8653634001        1.1103244080        0.5502509013
 H          7.7618703078        1.0010703702       -1.0676232095
 H          8.1121581002       -1.0508801357       -2.3908857184
 H          6.5976934633       -2.9790363512       -2.1165144949
 H          4.7023972590       -2.8302285457       -0.4939361218
 H          2.9173940169        1.2316847169        1.7163364036
 H          3.1204883237       -0.5918461743       -1.4145570420
 H          1.2798551257       -0.5891844117       -3.0645894867
 H         -0.7814658742        0.6926971416       -2.6169793236
 H         -1.8104939262        2.4990089762       -1.4428031575
 C         -1.2547224586        3.3865371792        0.4205047564
 C         -0.5878297563        4.6189982894       -0.1109268204
 C         -2.0664799465        4.6119705817        0.1311654150
 H         -2.4569388696        5.1779619038        0.9636755998
 H         -2.7255155277        4.5837118590       -0.7240386258
 H          0.0393554890        5.1938474018        0.5531420520
 H         -0.2412132656        4.5936632483       -1.1328131363
 H         -1.1002915160        3.1332728679        1.4625322738
