  62
        -98.93257625
 C         -2.6082282461       -1.2767536949        0.3717317387
 C         -3.0088592455       -0.1320055625        1.1052875547
 C         -4.2056268845        0.5808970007        0.6317034394
 C         -4.8471179236        0.1294704817       -0.4596214069
 C         -6.1062776433        0.6575445561       -1.1009182068
 C         -6.2633090313        2.1793969697       -1.2113318973
 C         -4.9558408641        2.9488893875       -1.4492569695
 H         -4.1506773898        2.2540061068       -1.6945399444
 H         -5.0847857902        3.6130505260       -2.3058674757
 C         -4.5400161074        3.8045480008       -0.2503548160
 H         -5.4248121902        4.3082282382        0.1451710327
 H         -3.8488807993        4.5783998003       -0.5932374064
 C         -3.8459081206        3.0503775253        0.8832616552
 H         -3.7030614727        3.7473547443        1.7128659393
 H         -2.8503353580        2.7308514999        0.5614751792
 C         -4.5889553510        1.8096117908        1.4051988013
 H         -4.2624569712        1.6315030448        2.4335330168
 H         -5.6649619037        1.9662859285        1.4055779349
 H         -6.7429477972        2.5634216668       -0.3122094790
 H         -6.9511830511        2.3656099211       -2.0378487387
 H         -6.9614091703        0.2486689914       -0.5546343783
 H         -6.1223199689        0.2147743632       -2.0997774030
 O         -4.4188977173       -0.9648002310       -1.1469376747
 C         -3.2956614897       -1.6899990412       -0.7691702254
 O         -3.0451398253       -2.6474191916       -1.5223078123
 O         -2.3982751687        0.2663283530        2.1346988949
 C         -1.3857256651       -2.0167995760        0.8843716671
 C         -0.1358039758       -1.4701810150        0.2435346878
 C          0.0076221176       -1.4285013859       -1.1403951395
 C          1.1584674500       -0.9132816195       -1.7076393523
 C          2.1829286915       -0.4249550864       -0.9142716165
 C          2.0392752411       -0.4381636357        0.4661185319
 C          0.8859261684       -0.9670514476        1.0342144397
 H          0.7725562987       -0.9667268272        2.1099159187
 N          3.0698193196        0.0504147218        1.2817572964
 S          3.8877710337        1.4492107905        0.8499798894
 O          4.4320024190        1.9568384007        2.0901066242
 O          3.0468482751        2.3512153923        0.0983646407
 C          5.2234342705        0.8568008551       -0.1686484430
 C          5.4409020539        1.4139838304       -1.4134068488
 C          6.4928352356        0.9434569927       -2.1841706863
 C          7.3049234845       -0.0697869626       -1.6986447511
 C          7.0755352000       -0.6163514414       -0.4446806345
 C          6.0268030992       -0.1494924439        0.3311742977
 H          5.8180359274       -0.5454952116        1.3108722069
 H          7.7094570436       -1.4039830964       -0.0704040091
 H          8.1214243429       -0.4355020225       -2.3010187374
 H          6.6732589460        1.3681450930       -3.1586494355
 H          4.7808329152        2.1964527829       -1.7532186988
 H          2.8562180736        0.0406147278        2.2684051395
 H          3.0773808197       -0.0177392446       -1.3560480251
 H          1.2606246031       -0.8909846210       -2.7821539502
 H         -0.7934811830       -1.8017859544       -1.7607668000
 H         -1.3415296906       -1.7634748818        1.9558634888
 C         -1.5059383186       -3.5309334954        0.7842835232
 C         -0.6529596282       -4.3802184587       -0.1047757870
 C         -0.4359600599       -4.4005116542        1.3765185452
 H         -0.7287240440       -5.2761778664        1.9355925125
 H          0.4462780731       -3.9067553942        1.7560983994
 H         -1.1207814338       -5.2312351614       -0.5755561322
 H          0.0878268307       -3.8963167401       -0.7209072792
 H         -2.5303927766       -3.8623665622        0.9192148850
