  62
        -98.94047595
 C         -2.0155901458       -1.1958964131        0.5336622510
 C         -1.9468601061        0.1247361877        1.0516017434
 C         -3.0510970372        1.0237434682        0.7030543920
 C         -4.0702832794        0.5636720106       -0.0444204721
 C         -5.2978416677        1.3362692177       -0.4442765129
 C         -5.1124596767        2.2043704185       -1.6961359779
 C         -4.2498797327        3.4513542658       -1.4985797212
 H         -4.3795677805        4.0749486619       -2.3853796001
 H         -4.6228371000        4.0182986845       -0.6449581025
 C         -2.7539360789        3.1610269184       -1.3138775059
 H         -2.5352191470        2.1455313022       -1.6532502505
 H         -2.1707048694        3.8378873009       -1.9425527741
 C         -2.2460739257        3.3245095357        0.1186492667
 H         -2.3365834554        4.3699469667        0.4216020544
 H         -1.1853098084        3.0615172918        0.1295803038
 C         -2.9710449887        2.4516963713        1.1520764478
 H         -2.4030464059        2.4760952654        2.0852951429
 H         -3.9690020635        2.8467011956        1.3412617327
 H         -6.1053695798        2.5226806700       -2.0222181898
 H         -4.6846001142        1.5872790989       -2.4898301568
 H         -5.6237631535        1.9611794757        0.3877994281
 H         -6.0756545838        0.5977325374       -0.6502889799
 O         -4.1064510854       -0.7081461231       -0.5165217093
 C         -3.0716437643       -1.6056130895       -0.2812042588
 O         -3.2365375609       -2.7028911779       -0.8495883598
 O         -1.0055675093        0.5294514114        1.7831883482
 C         -0.8587325079       -2.1152692731        0.8885999641
 C          0.2171773195       -2.0527495424       -0.1703554876
 C         -0.0717331016       -2.3226877714       -1.5040330630
 C          0.9114978625       -2.2209781138       -2.4713003010
 C          2.2014656386       -1.8534625190       -2.1294808942
 C          2.5025125848       -1.5905447915       -0.8008498005
 C          1.5141559113       -1.6962102770        0.1708965677
 H          1.7515679953       -1.4733961017        1.2025487232
 N          3.8222260996       -1.2111607117       -0.4697271281
 S          4.3188222409        0.3253902683       -0.9237440159
 O          3.7620655468        0.6248740192       -2.2175050279
 O          5.7598727701        0.3337858102       -0.8223164857
 C          3.6390608813        1.4039255307        0.3259328049
 C          2.2673747784        1.5479393653        0.4027660836
 C          1.7293521137        2.3018467035        1.4335531450
 C          2.5690553217        2.9151524354        2.3509216539
 C          3.9451929870        2.7764889873        2.2500168878
 C          4.4876069325        2.0024198565        1.2367785990
 H          5.5494058685        1.8493916534        1.1305647879
 H          4.5942625431        3.2576319174        2.9639780883
 H          2.1437218263        3.5001206432        3.1511504738
 H          0.6573604135        2.3695075240        1.5318555075
 H          1.6354563299        1.0655529885       -0.3267179632
 H          4.0558378584       -1.3635259078        0.5017508171
 H          2.9738295202       -1.7512686336       -2.8739641580
 H          0.6709353544       -2.4290721205       -3.5030882861
 H         -1.0779026012       -2.6044087158       -1.7757720707
 H         -0.4366334927       -1.7010442610        1.8145429767
 C         -1.2639312578       -3.5520001268        1.1500437991
 C         -0.3815537789       -4.4119937053        2.0023838304
 C         -1.7092755556       -3.9513047761        2.5233193158
 H         -2.5093095179       -4.6702855503        2.6145998798
 H         -1.7205049442       -3.1878663893        3.2876322887
 H         -0.2653491621       -5.4512152601        1.7361109479
 H          0.5081123672       -3.9632324192        2.4176091288
 H         -1.7633234756       -4.0183213037        0.3113526203
