  62
        -98.94226953
 C         -1.2241111823       -1.1223561624        0.0605458855
 C         -1.5736973355       -0.0402436662        0.8992444546
 C         -2.6122164423        0.8741344004        0.3972990797
 C         -3.1257765250        0.6663100026       -0.8274299209
 C         -4.2161581315        1.4477503850       -1.5069951109
 C         -5.5904984975        0.8082433323       -1.2448638871
 C         -6.2872435320        1.2772828487        0.0318415180
 H         -6.6202550396        2.3088458815       -0.1002182111
 H         -7.1783938075        0.6588724522        0.1610758906
 C         -5.4428507442        1.1953743675        1.3060102825
 H         -6.1238525579        1.1893256339        2.1591879709
 H         -4.8936865102        0.2523139975        1.3226587351
 C         -4.4657069316        2.3706090300        1.4595585569
 H         -4.5851859090        2.8138330853        2.4504089439
 H         -4.7253445230        3.1475801879        0.7407393435
 C         -2.9802275104        2.0094486153        1.3133234048
 H         -2.4221053916        2.8992363400        1.0001000606
 H         -2.5791719703        1.7194782443        2.2899190115
 H         -6.2461499084        1.0307325923       -2.0891314602
 H         -5.4537939883       -0.2757299410       -1.2138335369
 H         -4.1971588860        2.4873790660       -1.1931549059
 H         -4.0078824829        1.4023015866       -2.5781889438
 O         -2.7317321967       -0.3662076000       -1.6227518764
 C         -1.7705411915       -1.2749638266       -1.2129792112
 O         -1.4982568571       -2.1512967827       -2.0556343097
 H          0.8260717325        0.1281260203       -0.5897998900
 C          1.4459134705       -0.7259145782       -0.8136639769
 C          1.0746158802       -1.9819435159       -0.3549575541
 C          1.8739516382       -3.0689983118       -0.6872959666
 C          3.0029125964       -2.8932368035       -1.4688593507
 C          3.3738289911       -1.6372132935       -1.9139915897
 C          2.5835711890       -0.5426752066       -1.5822192705
 N          2.9140749936        0.7522354290       -2.0079457582
 S          2.5942088745        2.0573339780       -1.0129670994
 O          1.1858240882        2.3665558807       -1.0184103179
 O          3.4675711824        3.1001513610       -1.5095100991
 C          3.1381991408        1.5409679965        0.6057673263
 C          4.4989982131        1.3823894579        0.7901137956
 C          4.9655257542        0.9379572373        2.0155345290
 C          4.0665120300        0.6547590991        3.0331929145
 C          2.7058443064        0.8244813772        2.8347479461
 C          2.2325437389        1.2721115603        1.6106726545
 H          1.1755901117        1.4019172949        1.4373680494
 H          1.9972858500        0.6056696568        3.6177880684
 H          4.4272081708        0.3025216117        3.9866910627
 H          6.0243144257        0.8109100824        2.1732425792
 H          5.1659597108        1.6245942571       -0.0212580555
 H          3.8052983019        0.8380479001       -2.4734027445
 H          4.2565726074       -1.5031607666       -2.5198924008
 H          3.6088202242       -3.7476288128       -1.7292694430
 H          1.6081021472       -4.0545182068       -0.3418039592
 C         -0.1519292455       -2.0916836207        0.5191129977
 H          0.1309195319       -1.7553531334        1.5288999486
 C         -0.7010106139       -3.5003845141        0.6113121863
 C         -0.1881754075       -4.4489038343        1.6523953228
 C         -1.5615682823       -3.8648235278        1.7830019569
 H         -2.4159803833       -4.5035027290        1.6164929652
 H         -1.7260039196       -3.1038458426        2.5320577666
 H         -0.1010229746       -5.4944672420        1.3979189725
 H          0.5781386212       -4.0903853077        2.3227971256
 H         -0.9793589416       -3.9005882219       -0.3569342916
 O         -1.0400508297        0.1543079449        2.0261390654
