  62
        -98.94526770
 C         -1.4695868597       -1.3032668295       -0.5354001613
 C         -2.7970020297       -1.3275263398       -0.0320594515
 C         -3.7070710694       -0.2868874389       -0.5237825204
 C         -3.2508733591        0.6135548320       -1.4128698693
 C         -4.0432584087        1.7711226828       -1.9462258781
 C         -3.8449224384        3.0214826117       -1.0782277666
 C         -4.0343447587        2.7721146601        0.4183428931
 H         -3.2341026189        2.1173991194        0.7731481324
 H         -3.9069203784        3.7314030494        0.9251764342
 C         -5.3944587089        2.1687199000        0.7969505423
 H         -5.7833896688        2.7030760491        1.6662446028
 H         -6.1038660987        2.3159010611       -0.0181732176
 C         -5.3496128993        0.6854251196        1.1686686706
 H         -6.3064654394        0.4205557793        1.6264152602
 H         -4.5707337094        0.5197335885        1.9175373305
 C         -5.1134189495       -0.2862223392        0.0057996195
 H         -5.8264483093       -0.0817291280       -0.7954329204
 H         -5.2934232798       -1.2990515495        0.3779282583
 H         -4.5447726282        3.7896352923       -1.4128391258
 H         -2.8291697383        3.3940074916       -1.2333858861
 H         -3.7009534085        1.9859864839       -2.9599454078
 H         -5.0970337688        1.5006730931       -1.9775266185
 O         -1.9858528390        0.5909028322       -1.8971190692
 C         -1.0572381193       -0.3469560486       -1.4638036302
 O          0.0577783508       -0.2179128783       -2.0037452799
 O         -3.2041672401       -2.1914319806        0.7910674275
 C         -0.5211756500       -2.3493481105        0.0295187676
 C          0.1911292800       -1.7728652720        1.2312960183
 C         -0.0863162302       -2.2462966734        2.5081779577
 C          0.5330583698       -1.6896981149        3.6129954384
 C          1.4306841701       -0.6495172949        3.4630108597
 C          1.7160906404       -0.1667709336        2.1886400803
 C          1.1073358203       -0.7398697821        1.0816463796
 H          1.3110794005       -0.3489213610        0.0991040600
 N          2.6385860807        0.8714097864        2.0257025216
 S          2.6161078311        1.9367986779        0.7354075628
 O          3.3266438414        3.0958034371        1.2389024042
 O          1.2761489712        2.1779990488        0.2567914729
 C          3.6450887210        1.1330434490       -0.4743386480
 C          3.1270613410        0.6689472505       -1.6652057186
 C          3.9794257209        0.0388345613       -2.5607590693
 C          5.3223337908       -0.1117611394       -2.2548515093
 C          5.8275682408        0.3663060490       -1.0544895487
 C          4.9830923809        0.9945106982       -0.1552633681
 H          5.3346643309        1.3903127271        0.7829600724
 H          6.8731514308        0.2496667485       -0.8190162387
 H          5.9778327908       -0.6037251388       -2.9562472098
 H          3.5802500909       -0.3329217975       -3.4912099097
 H          2.0745482310        0.7828740810       -1.8755169286
 H          2.9571925207        1.3054246953        2.8786462321
 H          1.9066197301       -0.2057058461        4.3241985603
 H          0.3073372096       -2.0623550059        4.6007042680
 H         -0.8100419805       -3.0385715334        2.6309564867
 H         -1.1711546703       -3.1594722107        0.3884395366
 C          0.4558447799       -2.9298003096       -0.9709242230
 C          1.0748843095       -4.2636631501       -0.6821977545
 C          0.0564068397       -4.1300046085       -1.7734635544
 H          0.3838279998       -4.1931685274       -2.8001599445
 H         -0.9293684405       -4.5388507785       -1.6049954750
 H          2.1061670795       -4.4212776400       -0.9573438446
 H          0.7792877793       -4.7658990810        0.2265275849
 H          1.0681994602       -2.1875366492       -1.4643649621
