  62
        -98.93644571
 C         -1.9589702388       -1.5038465535        0.0690019562
 C         -1.6252923710       -0.2508083298       -0.4944267604
 C         -2.7519585423        0.6524076311       -0.8016734655
 C         -4.0047191545        0.2611810861       -0.5150070559
 C         -5.2725547821        1.0505989023       -0.6875971142
 C         -5.6244036721        1.8001339435        0.6089730798
 C         -4.9821308309        3.1795017789        0.7527780768
 H         -5.4520154412        3.8683999228        0.0476172697
 H         -5.2073806314        3.5381514568        1.7598054766
 C         -3.4662592226        3.2240420969        0.5428523822
 H         -3.0904022428        4.1312034794        1.0199405330
 H         -2.9991215883        2.3759513674        1.0470035368
 C         -3.0634069136        3.2387041602       -0.9391832840
 H         -3.9452319857        3.4459579246       -1.5452908842
 H         -2.3670274604        4.0606735473       -1.1176222271
 C         -2.3790079700        1.9601836539       -1.4454238240
 H         -1.2974595655        2.0415244352       -1.2969659878
 H         -2.5383870422        1.8740702969       -2.5257658536
 H         -6.7079706207        1.9257249119        0.6573758871
 H         -5.3316683492        1.1674857268        1.4509521492
 H         -5.1902756131        1.7337926322       -1.5277756294
 H         -6.0640560727        0.3281206039       -0.8974833855
 O         -4.2815655428       -0.9439840695        0.0557945545
 C         -3.2808230509       -1.8456322502        0.3660006801
 O         -3.6847902306       -2.8960166541        0.9029155424
 O         -0.4462514983        0.1183951166       -0.7293747674
 C         -0.8941679572       -2.5243819501        0.4325766913
 C          0.2485774473       -1.8525995489        1.1544677284
 C         -0.0020224125       -1.2817668952        2.4002976063
 C          1.0061705144       -0.6632084182        3.1131360108
 C          2.2884242789       -0.6007010644        2.5962896535
 C          2.5497210604       -1.1644848522        1.3536793414
 C          1.5348657605       -1.7906836194        0.6410911406
 H          1.7611916238       -2.1915715094       -0.3326675414
 N          3.8523818347       -1.1373539513        0.8173382573
 S          4.1387082724       -0.3876435081       -0.6533245867
 O          3.3420021072       -1.0001535585       -1.6823984285
 O          5.5742171912       -0.4652003516       -0.8267733836
 C          3.6747411365        1.3147268692       -0.3856379961
 C          2.3379840065        1.6571526453       -0.3525527454
 C          1.9984554564        2.9716080691       -0.0679686453
 C          2.9873813653        3.9116789279        0.1753956973
 C          4.3253862285        3.5487594765        0.1372776874
 C          4.6740246220        2.2371968326       -0.1397859484
 H          5.7001586020        1.9088151302       -0.1803799308
 H          5.0943321383        4.2808550832        0.3250677162
 H          2.7130928888        4.9315175086        0.3955502543
 H          0.9558571821        3.2464587453       -0.0358615139
 H          1.5815959425        0.9137813913       -0.5475279422
 H          4.5508605767       -0.8246803912        1.4780085998
 H          3.0809905213       -0.1199342233        3.1499691913
 H          0.7938618154       -0.2249776165        4.0766141273
 H         -1.0062001773       -1.3291060336        2.8006084800
 H         -1.3864088204       -3.2037626582        1.1486486623
 C         -0.4354325927       -3.3871128629       -0.7332772596
 C         -1.3784557445       -3.7611433696       -1.8367926347
 C         -0.2296834243       -2.8401233143       -2.1119901630
 H          0.6059289642       -3.2086810337       -2.6894374145
 H         -0.4315675598       -1.7932857054       -2.2733493918
 H         -1.3392680259       -4.7672499623       -2.2264260508
 H         -2.3745568330       -3.3434062522       -1.8069892679
 H          0.2552601784       -4.1614882612       -0.4119353963
