  62
        -98.93851726
 C         -1.7052457494       -0.8116521458        0.5760174154
 C         -2.8808407961       -1.2401067309       -0.0899157386
 C         -4.1419112065       -0.6539166451        0.3959245343
 C         -4.1209921559        0.2231449021        1.4143924287
 C         -5.3229082461        0.9379597155        1.9592701002
 C         -5.5422805771        2.2802756311        1.2475474180
 C         -5.5060005645        2.1847177732       -0.2778315654
 H         -5.7033359373        3.1846862125       -0.6704495310
 H         -4.4965448020        1.9103495173       -0.5934448614
 C         -6.5125736919        1.1921105244       -0.8762873344
 H         -7.2887694476        0.9654961165       -0.1444459119
 H         -7.0013813803        1.6630205290       -1.7318125954
 C         -5.8935003072       -0.1131689435       -1.3793069055
 H         -5.0534221492        0.1119831309       -2.0410479005
 H         -6.6457971171       -0.6393834632       -1.9728637650
 C         -5.4067431367       -1.0819213296       -0.2943404428
 H         -6.2037998446       -1.2513148879        0.4322454571
 H         -5.1746709775       -2.0341222396       -0.7802169981
 H         -6.5040526490        2.6866645520        1.5660277731
 H         -4.7588580403        2.9725501975        1.5651917276
 H         -6.2001752462        0.3048175807        1.8411280782
 H         -5.1598311797        1.1232218044        3.0223482865
 O         -2.9761768422        0.5955306740        2.0432032366
 C         -1.7509223193        0.0931060095        1.6405916496
 O         -0.7843360612        0.5108130481        2.3112813304
 H          2.0881270332       -0.0988274104        0.1334760709
 C          1.5423931068        0.0513462124       -0.7846022443
 C          0.2708652266       -0.4873455239       -0.9187281179
 C         -0.4296457756       -0.2647477549       -2.1003583181
 C          0.1355428538        0.4834211842       -3.1166401888
 C          1.4009759882        1.0254066928       -2.9752557999
 C          2.1105649635        0.8092637343       -1.7996806784
 N          3.4090276725        1.3116846754       -1.6463350082
 S          3.9678572279        1.8352131006       -0.1575836111
 O          2.9247175666        2.4662625413        0.6152761545
 O          5.1109744441        2.6615281026       -0.4831921510
 C          4.5389854769        0.3471253966        0.6345688964
 C          5.4734386601       -0.4247019319       -0.0277851148
 C          5.9300075564       -1.5859100554        0.5744236269
 C          5.4483592838       -1.9525229033        1.8222981400
 C          4.5132781388       -1.1646355984        2.4758510727
 C          4.0524595268       -0.0012856231        1.8789242447
 H          3.3153267015        0.6326302037        2.3484974829
 H          4.1356163521       -1.4504956669        3.4446617780
 H          5.8016919111       -2.8581082300        2.2895389136
 H          6.6564534251       -2.2022306269        0.0698976286
 H          5.8248230436       -0.1033782176       -0.9939464292
 H          3.7330229262        1.8984433951       -2.4010837288
 H          1.8375125506        1.6131746772       -3.7684670298
 H         -0.4171520920        0.6502700148       -4.0290760233
 H         -1.4148466068       -0.6896526870       -2.2153937458
 C         -0.3155030156       -1.3031217104        0.2054265996
 H          0.2989264479       -1.1135801765        1.1000999360
 C         -0.2647010518       -2.8023251798       -0.0627647931
 C         -0.0092313158       -3.3983748418       -1.4109124189
 C          1.0520863518       -3.4589420803       -0.3564834980
 H          1.2721592191       -4.4081312931        0.1076790371
 H          1.9098655859       -2.8131710880       -0.4739364791
 H         -0.5450229249       -4.2999843301       -1.6654015578
 H          0.1375805401       -2.7314089127       -2.2452714088
 H         -0.9475640669       -3.3475361940        0.5808444265
 O         -2.9008176675       -2.0639672999       -1.0389306362
