  62
        -98.94892367
 C          2.2410783188        0.8359442055        0.0773975909
 C          1.5879932514        0.1057399225       -0.9443301700
 C          1.9749426939       -1.3049896313       -1.0749051474
 C          2.8707607836       -1.8235638962       -0.2159950592
 C          3.3607684123       -3.2423990465       -0.2362017284
 C          2.5213848747       -4.1540360273        0.6678586629
 C          1.0136117255       -4.0346181558        0.4452488838
 H          0.5299828725       -4.7659583463        1.0977064539
 H          0.6715685544       -3.0493334089        0.7709378487
 C          0.5611786715       -4.2652801229       -1.0032663546
 H         -0.3246257761       -4.9039911113       -0.9913408026
 H          1.3375725599       -4.7942629813       -1.5583858243
 C          0.1765472435       -2.9844870416       -1.7465192045
 H         -0.4877186240       -2.3930655551       -1.1112050919
 H         -0.3817394925       -3.2628965666       -2.6446144476
 C          1.3459312262       -2.0945657234       -2.1879876978
 H          2.0957404266       -2.6997728067       -2.7029753497
 H          0.9550613789       -1.3561341556       -2.8942171636
 H          2.7332400196       -3.9018135475        1.7097177552
 H          2.8344240455       -5.1865335510        0.4983486472
 H          4.3937053739       -3.2500565623        0.1174935942
 H          3.3357666233       -3.6102433968       -1.2603783254
 O          3.4305344128       -1.1066475857        0.7935810847
 C          3.1204218856        0.2312993976        0.9726861537
 O          3.6860003297        0.7663714351        1.9504609971
 O          0.7397403636        0.6133449976       -1.7234961419
 C          1.9370574253        2.3142701023        0.2619436246
 C          0.4478613015        2.4917446617        0.4194382308
 C         -0.3111478470        3.3943841160       -0.3138772198
 C         -1.6890372452        3.4278147756       -0.1805145075
 C         -2.3385949988        2.5502922216        0.6688521135
 C         -1.5837709372        1.6667550937        1.4275829353
 C         -0.2047937955        1.6612076435        1.3225253525
 H          0.3736178411        0.9554646554        1.9072651864
 N         -2.2615630244        0.6981730888        2.2290131282
 S         -2.2767042799       -0.7878750444        1.4183441003
 O         -3.0213453838       -1.6923116400        2.2698243857
 O         -0.9358471208       -1.2205149295        1.0884297833
 C         -3.2090738201       -0.4063935479       -0.0441049468
 C         -2.5549757719        0.0129022839       -1.1856256674
 C         -3.3127406125        0.3534954097       -2.2959483780
 C         -4.6957034351        0.2742687459       -2.2450988893
 C         -5.3353473102       -0.1479081849       -1.0888672140
 C         -4.5865200682       -0.4896703746        0.0250629500
 H         -5.0346223690       -0.8260213177        0.9456153611
 H         -6.4110993113       -0.2086998038       -1.0517904784
 H         -5.2777397728        0.5438439706       -3.1123621529
 H         -2.8100034276        0.6847668064       -3.1902800417
 H         -1.4770016685        0.0760981296       -1.2006200781
 H         -1.8114664020        0.5518735958        3.1237661897
 H         -3.4131314585        2.5341950814        0.7506665802
 H         -2.2650380388        4.1275754666       -0.7658107875
 H          0.1764058426        4.0589703945       -1.0081896480
 H          2.4291821495        2.6141839623        1.1986790535
 C          2.5263160259        3.1131624605       -0.8818111164
 C          2.9289630258        4.5418998508       -0.6763007156
 C          3.9772386296        3.4827517920       -0.8337287242
 H          4.5480570708        3.4506454020       -1.7495041217
 H          4.5367341418        3.1772893810        0.0387910396
 H          2.7847202939        5.2406220581       -1.4862917634
 H          2.7827985597        4.9663309405        0.3054016351
 H          2.1155055668        2.8271328454       -1.8432178245
