  62
        -98.94359162
 C          1.1970071601        0.9280926410       -0.6984870686
 C          2.2826355999        1.3219078003        0.1237867119
 C          3.1532612998        0.2503787598        0.6216834811
 C          2.8561412998       -1.0262260699        0.3196408299
 C          3.6747389197       -2.2169138203        0.7262390690
 C          4.7258489299       -2.5602262693       -0.3386756711
 C          5.5518054100       -1.3589532089       -0.7987151299
 H          6.2797562002       -1.7240481483       -1.5263210701
 H          4.8979228601       -0.6568281385       -1.3208168294
 C          6.2837932898       -0.6221655500        0.3315377709
 H          6.3420651997       -1.2608924508        1.2135919904
 H          7.3074420099       -0.4171972197        0.0111740113
 C          5.6614782098        0.7203895397        0.7197943220
 H          5.5155575900        1.3294241005       -0.1757899675
 H          6.3689041297        1.2494140191        1.3638824926
 C          4.3270524797        0.6457651990        1.4729718217
 H          4.4236106295       -0.0247894217        2.3299018911
 H          4.0992566496        1.6483034287        1.8474385826
 H          5.3888306098       -3.3273389297        0.0656665283
 H          4.2132752901       -2.9771810986       -1.2085514616
 H          4.1594625796       -2.0080215111        1.6782007893
 H          3.0027757597       -3.0676683604        0.8534838481
 O          1.7917822600       -1.3730679892       -0.4428508106
 C          0.9311399701       -0.4148119387       -0.9719839099
 O          0.0122440202       -0.8993952581       -1.6546180605
 H         -1.2991934401        0.2625948104        0.0446448103
 C         -1.4999063001        1.2682735601        0.3757975012
 C         -0.7751645000        2.3208159106       -0.1650961177
 C         -1.0372832101        3.6113268202        0.2778600634
 C         -1.9954426303        3.8357427993        1.2513288634
 C         -2.7012662004        2.7820494489        1.8032706523
 C         -2.4484313603        1.4868607793        1.3625479512
 N         -3.1640973704        0.3989060688        1.8741303301
 S         -2.5595279404       -1.1567573211        1.8064447988
 O         -3.4146477806       -1.8990036619        2.7120013580
 O         -1.1471742605       -1.2043230214        2.1132571390
 C         -2.8821714301       -1.6960235096        0.1423048283
 C         -3.9675734800       -1.1803231790       -0.5378392115
 C         -4.2260412198       -1.6306324579       -1.8216898719
 C         -3.4062018897       -2.5895328074       -2.3964917826
 C         -2.3273489298       -3.1036707180       -1.6966270729
 C         -2.0592640201       -2.6526922392       -0.4145224024
 H         -1.2143983702       -3.0102842497        0.1530203774
 H         -1.6826550798       -3.8415193676       -2.1459762334
 H         -3.6057693695       -2.9352822865       -3.3986518330
 H         -5.0617710497       -1.2285797674       -2.3717165517
 H         -4.5815180901       -0.4321672194       -0.0641824309
 H         -3.7301092406        0.5758738881        2.6898623201
 H         -3.4379352505        2.9552960882        2.5725259123
 H         -2.1872780303        4.8414000490        1.5932570342
 H         -0.4703467500        4.4361018406       -0.1279509258
 C          0.2889496302        2.0404322015       -1.1954081378
 H          0.9337424602        2.9323155915       -1.2529401269
 C         -0.2790383896        1.7978412828       -2.5855509681
 C         -1.6987383095        1.4010329530       -2.8428799387
 C         -1.2370509694        2.7833292533       -3.1875808174
 H         -1.1203375493        3.0484603642       -4.2273690772
 H         -1.5754779296        3.5927791228       -2.5585071268
 H         -2.3551426797        1.2734552223       -1.9966399390
 H         -1.8799796794        0.6939646437       -3.6373206294
 H          0.4635520605        1.3705394833       -3.2517106284
 O          2.5168290899        2.5257914000        0.4203941630
