  62
        -98.94721437
 C         -1.0184207886       -1.5097273216       -0.8801151306
 C         -2.3394921189       -1.4238785523       -0.3690832213
 C         -3.0721079496       -0.1873839030       -0.6533016022
 C         -2.4838443799        0.7804014271       -1.3781232124
 C         -3.0765003807        2.1209849765       -1.7160471733
 C         -2.8972423020        3.1567127972       -0.5969916037
 C         -3.8107423924        2.9641939071        0.6143578459
 H         -3.7618489434        3.8840970375        1.2007494755
 H         -4.8420154622        2.8436529463        0.2794096455
 C         -3.4161812721        1.7874984779        1.5182518667
 H         -2.3797790218        1.5038682685        1.3153988073
 H         -3.4533718828        2.1060478483        2.5632553165
 C         -4.3149557012        0.5566574472        1.3913439268
 H         -5.3197172615        0.8003947066        1.7454462262
 H         -3.9097900309       -0.2270196422        2.0368291474
 C         -4.4233856701       -0.0105567636       -0.0297004830
 H         -4.8932265494       -0.9955895639        0.0313826773
 H         -5.0457447802        0.6370032457       -0.6470932436
 H         -1.8565215221        3.1363416081       -0.2616565532
 H         -3.0947561725        4.1428659869       -1.0245681143
 H         -2.5576378705        2.4789686965       -2.6079830332
 H         -4.1360732405        2.0126171057       -1.9494925538
 O         -1.2443611196        0.6373342377       -1.9082221017
 C         -0.4619742490       -0.4780590216       -1.6366700208
 O          0.6754821013       -0.4123898511       -2.1437729603
 O         -2.8796966786       -2.3446683724        0.3027526989
 C         -0.2062446780       -2.7140347709       -0.4314735796
 C          0.4699876311       -2.3602857998        0.8739732306
 C          0.3553012711       -3.1651760993        2.0005302209
 C          0.9070004103       -2.7668092583        3.2061021510
 C          1.5440175394       -1.5440700879        3.3210873207
 C          1.6662169293       -0.7349735383        2.1971668504
 C          1.1719324302       -1.1684005492        0.9779938803
 H          1.2909060602       -0.5392694696        0.1112201901
 N          2.2698316984        0.5296203321        2.2581017301
 S          1.6212729880        1.7721997712        1.3325829491
 O          2.0197757369        2.9797530719        2.0309862288
 O          0.1992002782        1.6125473302        1.1349885985
 C          2.5054705188        1.7121157811       -0.2089236804
 C          3.8017005892        1.2375167620       -0.2246934895
 C          4.5021018597        1.2489478019       -1.4195622292
 C          3.9012233600        1.7385949210       -2.5690909997
 C          2.6017268296        2.2168234701       -2.5342938706
 C          1.8943251990        2.2045674102       -1.3431855709
 H          0.8735528188        2.5483434895       -1.2818121616
 H          2.1289631998        2.5871441493       -3.4297305010
 H          4.4464392104        1.7426684409       -3.4999320695
 H          5.5119422800        0.8721238826       -1.4517301485
 H          4.2345329590        0.8578539327        0.6860616909
 H          2.5227478178        0.8444298428        3.1835573500
 H          1.9331516887       -1.2119881371        4.2715118807
 H          0.8118835603       -3.4005641680        4.0747357312
 H         -0.1917387282       -4.0939039297        1.9355064611
 H         -0.9386236875       -3.5066345913       -0.2245230396
 C          0.7936412429       -3.2329756207       -1.4429600589
 C          1.2329111338       -4.6634308403       -1.3622759380
 C          0.3449119340       -4.2138138915       -2.4826492286
 H          0.7600898445       -4.1337877217       -3.4757009084
 H         -0.6913754457       -4.5188344122       -2.4667157490
 H          2.2624439941       -4.8973208497       -1.5846135473
 H          0.7984917439       -5.2795554002       -0.5897703079
 H          1.5266263725       -2.4948091903       -1.7398865088
