  62
        -98.94757249
 C         -0.7585869576       -1.2741169545        0.0648475975
 C         -1.4725196589       -0.5857398177        1.0734578668
 C         -2.4049810796        0.4482952779        0.6059553882
 C         -2.4745989709        0.7242384346       -0.7091364155
 C         -3.4452413578        1.6834154232       -1.3332800032
 C         -4.7411653410        0.9667106749       -1.7412025089
 C         -5.3379820327        0.0870669402       -0.6424418837
 H         -4.6580379220       -0.7439489371       -0.4409972291
 H         -6.2614426809       -0.3429106182       -1.0365089158
 C         -5.6381916372        0.8243341560        0.6701248126
 H         -6.6270781079        0.5235639493        1.0225703063
 H         -5.6715033631        1.8997062185        0.4921185434
 C         -4.6533443084        0.5289489291        1.8030246070
 H         -4.5483721048       -0.5520725432        1.9257937708
 H         -5.0742028586        0.9234344813        2.7318582374
 C         -3.2535361264        1.1350108328        1.6387020131
 H         -2.7250110967        1.0172128973        2.5893380289
 H         -3.3440068033        2.2008561573        1.4221197511
 H         -4.5289414210        0.3338127177       -2.6058516724
 H         -5.4718602819        1.7195017798       -2.0424173233
 H         -2.9839348641        2.1074545504       -2.2258955946
 H         -3.6678785570        2.4816311681       -0.6286150502
 O         -1.7023106380        0.1060396898       -1.6379237248
 C         -0.8521006743       -0.9302162779       -1.2838158705
 O         -0.2463658479       -1.4484869321       -2.2402466715
 O         -1.3479650814       -0.8348472446        2.3039925285
 C          0.1426291950       -2.4299090885        0.4556003691
 C          1.5407610075       -2.2358474678       -0.0750408374
 C          2.2921025378       -3.2644609189       -0.6291397988
 C          3.5740786486       -3.0235084211       -1.0914422079
 C          4.1340176468       -1.7629399492       -1.0052196296
 C          3.3925657230       -0.7273179165       -0.4461509115
 C          2.1107185388       -0.9725593625        0.0171272081
 H          1.5396840420       -0.1683627110        0.4583361487
 N          3.9162609557        0.5688192892       -0.3791394412
 S          3.4002901847        1.6727861994        0.7534271109
 O          4.3925785748        2.7260198500        0.6968972382
 O          3.2056315207        1.0673013757        2.0505967653
 C          1.8640158030        2.3085617561        0.1197128321
 C          0.8393387667        2.5863690464        1.0018754271
 C         -0.3241625628        3.1620357155        0.5187498033
 C         -0.4440971188        3.4445879436       -0.8325215765
 C          0.5878142696        3.1454509463       -1.7081813100
 C          1.7574662362        2.5776427618       -1.2299727242
 H          2.5811787934        2.3385192310       -1.8818909937
 H          0.4860109589        3.3553179722       -2.7608187243
 H         -1.3469839252        3.9018754870       -1.2042250134
 H         -1.1279121312        3.3871465176        1.2007015069
 H          0.9670108502        2.3391349569        2.0443223069
 H          4.8865811494        0.6727912409       -0.6332220261
 H          5.1318999097       -1.5749368847       -1.3706571287
 H          4.1457992931       -3.8300040265       -1.5249496461
 H          1.8733657366       -4.2544510483       -0.7048221942
 H          0.1904149445       -2.4087369767        1.5554434259
 C         -0.4878689424       -3.7386216335        0.0214784475
 C         -0.2741013466       -4.9896761972        0.8187190187
 C         -1.6077158646       -4.3070778114        0.8386984153
 H         -2.4362617964       -4.7735551443        0.3270314809
 H         -1.8931896926       -3.7656257803        1.7289662421
 H         -0.1894314553       -5.9288783165        0.2929974295
 H          0.3423667777       -4.9204347914        1.7023156009
 H         -0.5627671497       -3.8233244131       -1.0573078588
