  62
        -98.94120517
 C          1.9517047129        0.8887361037       -0.2225320761
 C          2.5853809310        0.3059681912        0.9058545372
 C          2.9060422248       -1.1205283752        0.8151663795
 C          2.5505445977       -1.8099914933       -0.2834394547
 C          2.7683828225       -3.2808251582       -0.5162751926
 C          4.1644891463       -3.6296925927       -1.0506067312
 C          5.2995030587       -3.5066319820       -0.0331121708
 H          5.0399899624       -4.0653292810        0.8665033955
 H          6.1766883910       -3.9847609480       -0.4733531444
 C          5.6602313817       -2.0623555300        0.3413789272
 H          5.2453144525       -1.3790888956       -0.4032254350
 H          6.7454357030       -1.9404732504        0.3190838928
 C          5.1839277479       -1.6289650977        1.7278516340
 H          5.4612963205       -0.5820202973        1.8735315538
 H          5.6911184184       -2.2220124634        2.4919607850
 C          3.6692064439       -1.7499378418        1.9417218065
 H          3.3861185148       -2.7965049806        2.0531345272
 H          3.4064341410       -1.2161874629        2.8582480805
 H          4.1291203793       -4.6637212273       -1.4012817792
 H          4.3759327594       -2.9931717242       -1.9129207564
 H          2.5825264469       -3.8273588240        0.4089136647
 H          2.0259672958       -3.5892510469       -1.2558591920
 O          1.9188515706       -1.2271985298       -1.3346858500
 C          1.6103921182        0.1279745075       -1.3415466609
 O          1.0584494685        0.4988426030       -2.3969648494
 O          2.8763407833        0.9591472966        1.9448151089
 C          1.6084597262        2.3631513119       -0.1036631378
 C          0.2325799726        2.5361797140        0.4975873331
 C          0.0266619175        3.4077469003        1.5608132378
 C         -1.2282678422        3.5453895748        2.1262416195
 C         -2.2942548937        2.7999089228        1.6574773624
 C         -2.0993764755        1.9295173839        0.5904946963
 C         -0.8472800371        1.8183883674        0.0044744667
 H         -0.7186662218        1.1420130017       -0.8274221461
 N         -3.1586478859        1.1594276456        0.0859222345
 S         -2.8194410476       -0.4200091227       -0.4153141871
 O         -1.8100346603       -1.0044933639        0.4391849298
 O         -2.5532244663       -0.4113715231       -1.8311905360
 C         -4.4006909439       -1.1927980878       -0.1179242656
 C         -4.6158809892       -1.8535798445        1.0767147199
 C         -5.8586250119       -2.4191487600        1.3160692465
 C         -6.8609291680       -2.3115811596        0.3636772887
 C         -6.6299923204       -1.6459491567       -0.8311347117
 C         -5.3895316757       -1.0789060837       -1.0770343800
 H         -5.1587891510       -0.5601037205       -1.9929176894
 H         -7.4102371987       -1.5667599181       -1.5707000097
 H         -7.8270722773       -2.7520317884        0.5525549777
 H         -6.0392536826       -2.9400582361        2.2424867907
 H         -3.8035609041       -1.9182699753        1.7829246035
 H         -3.9878018505        1.1999016667        0.6630985406
 H         -3.2696389509        2.8875842492        2.1113582469
 H         -1.3737639385        4.2245137599        2.9523884902
 H          0.8635599623        3.9634801505        1.9566700708
 H          2.3342607045        2.7738788413        0.6128691646
 C          1.7166804879        3.1473864091       -1.3958608450
 C          1.9752873817        4.6221085966       -1.3352088982
 C          3.0469504743        3.6921865914       -1.8175459911
 H          3.2947559731        3.6823955329       -2.8681157765
 H          3.8902505774        3.5051429448       -1.1686415411
 H          1.4840211502        5.2579721781       -2.0553149237
 H          2.0970423672        5.0709210777       -0.3613038691
 H          1.0594044837        2.7810699518       -2.1738124792
