  62
        -98.94965287
 C         -1.6884132748       -1.2208305962        0.3390173211
 C         -1.3279003422       -0.1587619200       -0.5226601305
 C         -1.8832180537        1.1551774464       -0.1866907618
 C         -2.6454023354        1.2954264284        0.9126818820
 C         -3.2528546064        2.5789155348        1.4105830074
 C         -4.5792574437        2.9513408777        0.7333681375
 C         -4.4601893072        3.4403181132       -0.7106665515
 H         -5.4262178090        3.8700436974       -0.9829476036
 H         -3.7213359924        4.2406825229       -0.7605864612
 C         -4.1040293681        2.3432762032       -1.7234196306
 H         -4.7543418813        2.4293984273       -2.5967119366
 H         -4.2915448195        1.3634277542       -1.2784613526
 C         -2.6609601529        2.3896487730       -2.2253996275
 H         -2.5081288900        1.5490235249       -2.9065320988
 H         -2.4970119549        3.3129159131       -2.7851976277
 C         -1.6051330484        2.2978342615       -1.1157303595
 H         -0.6305104191        2.1204736544       -1.5772315395
 H         -1.5561314934        3.2337350785       -0.5590119423
 H         -5.0342859352        3.7470569111        1.3277487508
 H         -5.2447053295        2.0857953514        0.7721093653
 H         -3.4368387482        2.4401288481        2.4784102975
 H         -2.5350341376        3.3910292053        1.2887791917
 O         -2.9446282096        0.2547484594        1.7359080851
 C         -2.4761913151       -1.0220353569        1.4705949269
 O         -2.8235221422       -1.8831813209        2.3066910279
 H          0.4969811008       -1.1818584641        1.6250362267
 C          1.0459893909       -1.7522974254        0.8896002205
 C          0.3626459020       -2.5647750144       -0.0061973398
 C          1.0992295446       -3.2966478432       -0.9295833507
 C          2.4788353253       -3.1896227837       -0.9706507349
 C          3.1494044704       -2.3375900911       -0.1121942268
 C          2.4218900543       -1.6106009937        0.8227252769
 N          3.0504108405       -0.7113309562        1.7103876277
 S          2.6464678083        0.9100479571        1.5639629667
 O          3.4767434995        1.5895586021        2.5361324187
 O          1.2240101018        1.0824976795        1.7075299160
 C          3.1866021845        1.3519594181       -0.0785251216
 C          4.4075787895        1.9835831011       -0.2227786020
 C          4.8694390245        2.2719626575       -1.4964292884
 C          4.1103456756        1.9154218771       -2.6011168861
 C          2.8903736531        1.2779048418       -2.4387214009
 C          2.4186872278        0.9891050762       -1.1667420081
 H          1.4691304601        0.4966827542       -1.0221171106
 H          2.2933047610        0.9963796256       -3.2913779841
 H          4.4698361963        2.1357749840       -3.5939024838
 H          5.8174274726        2.7694715353       -1.6233535966
 H          4.9603454326        2.2433147489        0.6656905138
 H          4.0581432686       -0.7958923624        1.7256598311
 H          4.2227218839       -2.2323478786       -0.1625147781
 H          3.0372540552       -3.7630888458       -1.6945511791
 H          0.5911996028       -3.9467917516       -1.6230142228
 C         -1.1441925505       -2.6135625471        0.0790215883
 H         -1.4229795292       -3.2205645749        0.9532838509
 C         -1.7938312230       -3.2049222527       -1.1560967087
 C         -2.0277345564       -4.6814411579       -1.2594768721
 C         -3.1840126083       -3.7525363992       -1.0466078155
 H         -3.8713067112       -3.5844420550       -1.8621321662
 H         -3.6492875122       -3.7246870322       -0.0716295799
 H         -1.7161319059       -5.2971830240       -0.4292969709
 H         -1.9253849966       -5.1540256184       -2.2247477336
 H         -1.5405226281       -2.6598172883       -2.0582304387
 O         -0.5736872944       -0.3018334751       -1.5212094228
