  62
        -98.93605725
 C         -1.9356631046       -1.4968766782        0.3229014406
 C         -1.6791096732       -0.4532683024       -0.6003149075
 C         -2.7425639233        0.5611451980       -0.7580451173
 C         -3.8249171634        0.5268488816        0.0392530632
 C         -5.0629628950        1.3966727633        0.0741372815
 C         -5.0729157638        2.7726196518       -0.5879922639
 C         -4.1180576251        3.7907481194        0.0306282512
 H         -4.2061097647        4.7213166026       -0.5347962938
 H         -4.4344509069        3.9936022996        1.0567187484
 C         -2.6501651013        3.3710247599        0.0635359957
 H         -2.0696638427        4.2172512688        0.4405762994
 H         -2.5204345816        2.5478414845        0.7696351885
 C         -2.0684020834        2.9666429608       -1.2906466512
 H         -0.9806913203        2.9369275008       -1.1931919115
 H         -2.3096307739        3.7295515420       -2.0332147285
 C         -2.5239669735        1.5951714323       -1.8266349566
 H         -3.4223203703        1.6876091869       -2.4349070234
 H         -1.7317668371        1.2081223170       -2.4740486515
 H         -4.8843989922        2.6836754194       -1.6539887455
 H         -6.0890424012        3.1608842956       -0.4766151574
 H         -5.8647769234        0.7950962118       -0.3689205211
 H         -5.3124543707        1.5087274909        1.1339547292
 O         -3.9765824305       -0.4367749506        0.9929842809
 C         -3.0740358571       -1.4724446637        1.1365956985
 O         -3.3857858753       -2.2950163052        2.0199850013
 O         -0.6363440207       -0.3545583150       -1.2976506183
 C         -1.0127379623       -2.6879118141        0.5372002273
 C          0.3993444664       -2.2374812065        0.8086439876
 C          0.8115399661       -1.9664148886        2.1091181372
 C          2.0953125343       -1.5169656034        2.3631454893
 C          2.9755716039       -1.2831093991        1.3212926220
 C          2.5558821436       -1.5143869117        0.0173613131
 C          1.2927787614       -2.0336280985       -0.2301447608
 H          0.9828265272       -2.2235022903       -1.2454237662
 N          3.3990145747       -1.1786525080       -1.0549693069
 S          4.2282912894        0.2721764005       -0.9520543287
 O          4.2988056665        0.7735792376       -2.3080236294
 O          5.5047880639        0.0363980321       -0.3186966153
 C          3.2784759728        1.3827627316        0.0821175957
 C          1.9057644798        1.4711151125       -0.0417675802
 C          1.2189283385        2.3307302664        0.8018080078
 C          1.9038822018        3.1010065286        1.7278548568
 C          3.2836226156        3.0149547931        1.8248616185
 C          3.9759408072        2.1429317475        1.0010247513
 H          5.0459466592        2.0249061800        1.0593596589
 H          3.8189561457        3.6143032504        2.5435189341
 H          1.3572881604        3.7660169395        2.3778094612
 H          0.1437215258        2.3819152833        0.7348360276
 H          1.3676925970        0.8674358400       -0.7568416824
 H          2.9479348905       -1.2656714561       -1.9546468807
 H          3.9736925310       -0.9137307406        1.4966005112
 H          2.4094839219       -1.3314176335        3.3787361464
 H          0.1125687296       -2.1107456773        2.9210027092
 H         -1.3934843313       -3.1730070476        1.4490731652
 C         -1.0739294274       -3.7349383983       -0.5681588883
 C         -2.3977055450       -4.1811109631       -1.1120457536
 C         -1.4430998184       -3.4279874280       -1.9867467172
 H         -0.9330808611       -3.9682681855       -2.7712821229
 H         -1.6803552461       -2.4086019116       -2.2461507295
 H         -2.5543271152       -5.2325715968       -1.2992687065
 H         -3.2769346949       -3.6642577225       -0.7544812550
 H         -0.3266599593       -4.5094121945       -0.4225639666
