  62
        -98.93685389
 C         -2.2200883161       -1.1260794699        0.3152073401
 C         -2.4022174574       -0.1618914169       -0.7051044141
 C         -3.2808890946        0.9709613896       -0.3707420248
 C         -3.8310746432        1.0366431652        0.8554101864
 C         -4.8072025441        2.0806360069        1.3186075996
 C         -6.2069972600        1.7853036110        0.7428516873
 C         -6.7190191361        2.8382973099       -0.2401384422
 H         -7.5999762766        2.4229393332       -0.7340345392
 H         -7.0398355345        3.7195904827        0.3192852151
 C         -5.7197457591        3.2979983678       -1.3061084540
 H         -6.2921459816        3.8275354113       -2.0706343125
 H         -5.0309571066        4.0255908885       -0.8741881712
 C         -4.9024877674        2.1896168957       -1.9822997755
 H         -4.8058158320        2.4372897244       -3.0412455739
 H         -5.4272849498        1.2358015591       -1.9259210284
 C         -3.4743804264        2.0192534973       -1.4314212746
 H         -2.8181369195        1.7091911515       -2.2501455235
 H         -3.1079392825        2.9819295169       -1.0639391005
 H         -6.1758853132        0.8108009767        0.2511046063
 H         -6.9256719291        1.7015253946        1.5594781068
 H         -4.8289158822        2.0445814783        2.4080976238
 H         -4.4659625301        3.0661713824        1.0093316916
 O         -3.6145527797        0.0987159945        1.8155534755
 C         -2.8042506705       -0.9991799130        1.5737516977
 O         -2.6784211817       -1.7718196860        2.5466110791
 H          0.0616770314       -0.3148705993        1.1192476316
 C          0.6364583368       -0.8271480805        0.3561636612
 C          0.0630420538       -1.8997350017       -0.3151281972
 C          0.8216438763       -2.5573862369       -1.2750518768
 C          2.1076333917       -2.1346979165       -1.5641174388
 C          2.6639082440       -1.0510930142       -0.9101998706
 C          1.9189659609       -0.3925280416        0.0593329269
 N          2.4674508488        0.7221413965        0.7193598967
 S          3.9748873914        0.5506954724        1.4391427212
 O          4.2024787665       -0.8085652993        1.8733237384
 O          4.0204399613        1.5689550391        2.4661009761
 C          5.1202158593        0.9787928322        0.1452304375
 C          6.1417017595        0.1097056962       -0.1845375249
 C          7.0286223802        0.4686596960       -1.1877458409
 C          6.8790883048        1.6834654493       -1.8389696346
 C          5.8489089057        2.5459291858       -1.4940766537
 C          4.9599027433        2.1941691480       -0.4910278328
 H          4.1475691987        2.8355255212       -0.1920344515
 H          5.7350829261        3.4893049915       -2.0034571177
 H          7.5691014068        1.9601616885       -2.6203822689
 H          7.8300161613       -0.2002559172       -1.4573077671
 H          6.2135941934       -0.8270811025        0.3445422796
 H          1.8241317809        1.1718854055        1.3545125597
 H          3.6607340073       -0.7123767341       -1.1405548342
 H          2.6830614590       -2.6534594595       -2.3154555317
 H          0.4042557697       -3.4012248086       -1.7994585782
 C         -1.3343147043       -2.3312975066        0.0627932841
 H         -1.2725076092       -2.8697456235        1.0208164764
 C         -1.9785957384       -3.2396951670       -0.9652846981
 C         -1.7938017547       -4.7246879441       -0.8907388173
 C         -3.1164543475       -4.1155899382       -0.5376988456
 H         -3.9468610472       -4.2513394155       -1.2141833093
 H         -3.4035622685       -4.0790551986        0.5035789661
 H         -1.1870959380       -5.1145779861       -0.0872498073
 H         -1.7194436317       -5.2822550569       -1.8122240821
 H         -2.0425303622       -2.7772261647       -1.9434798387
 O         -1.8551285521       -0.2390492828       -1.8353384466
