  62
        -98.93848109
 C          1.5130812991        0.7551602567        0.0373120168
 C          2.8005119845        1.3350928239        0.0938781446
 C          3.8953332042        0.4516766674        0.5294445667
 C          3.6226007458       -0.8235500417        0.8556687070
 C          4.5672787278       -1.8829170243        1.3665605390
 C          5.9425865483       -1.9922309601        0.6942401775
 C          5.9628130494       -1.6487046377       -0.8023263517
 H          6.4590384503       -2.4554805827       -1.3449759867
 H          4.9430957997       -1.5777693322       -1.1844139441
 C          6.7122927083       -0.3493841463       -1.1066064816
 H          7.6279675311       -0.3255258672       -0.5116082089
 H          7.0070336490       -0.3517471854       -2.1588632209
 C          5.9229840864        0.9360637835       -0.8611119324
 H          5.1318094471        1.0336394772       -1.6095381678
 H          6.6024511500        1.7800672954       -1.0029707479
 C          5.2691516802        1.0580411552        0.5251171142
 H          5.9022998768        0.6303383221        1.2987379059
 H          5.1299832958        2.1216671170        0.7377712822
 H          6.6549094231       -1.3530640715        1.2140758254
 H          6.2821733815       -3.0196144975        0.8364929567
 H          4.7061424667       -1.7245933928        2.4400275215
 H          4.0267346524       -2.8249176002        1.2482746633
 O          2.3620569441       -1.3388911339        0.7930541974
 C          1.2792822346       -0.5752447794        0.3834291057
 O          0.1940670785       -1.1825743421        0.3735673442
 H         -2.3761921082        1.1546788703       -0.6935633217
 C         -2.0717968033        1.3119968066        0.3264720298
 C         -0.7474876765        1.5761099687        0.6357451145
 C         -0.4103975910        1.8237235421        1.9644726212
 C         -1.3699417862        1.7799684955        2.9563253568
 C         -2.6852846862        1.4776905497        2.6484919074
 C         -3.0354254902        1.2465905217        1.3243457225
 N         -4.3613083672        0.9593470439        0.9786702607
 S         -4.7357203220        0.0416631373       -0.3622782542
 O         -4.5847799953        0.8308739568       -1.5596930916
 O         -6.0768609456       -0.4345385809       -0.0950714777
 C         -3.6030079931       -1.3350991003       -0.3867952020
 C         -3.5012780052       -2.1303612669        0.7361107138
 C         -2.6389024353       -3.2131425713        0.7128581378
 C         -1.8991930314       -3.4835157324       -0.4267950905
 C         -2.0168886859       -2.6792303873       -1.5478951391
 C         -2.8754861197       -1.5931411540       -1.5295625393
 H         -2.9908398015       -0.9373293584       -2.3785825246
 H         -1.4345746703       -2.8881954227       -2.4316197656
 H         -1.2205813593       -4.3216643264       -0.4394207894
 H         -2.5388072533       -3.8388788780        1.5852483744
 H         -4.0919339331       -1.8991719852        1.6079149445
 H         -4.9858177273        0.7866094938        1.7516140613
 H         -3.4336128927        1.4268995970        3.4243336691
 H         -1.0916418485        1.9713003813        3.9818505053
 H          0.6199886342        2.0433488136        2.2093339765
 C          0.3362425447        1.6003858949       -0.4124884498
 H          0.7212335345        2.6277706619       -0.4950181793
 C         -0.1395507399        1.1434278358       -1.7756601021
 C         -0.8220316667        2.1033814667       -2.7021820377
 C          0.5682894923        1.6313455998       -3.0024406424
 H          0.7160125853        0.9436151961       -3.8215873106
 H          1.3847564513        2.3246074950       -2.8615913243
 H         -1.6377900370        1.7437701046       -3.3118868402
 H         -0.9498763282        3.1199940646       -2.3619251030
 H         -0.4765506253        0.1121939367       -1.7685438190
 O          3.0255044469        2.5426636861       -0.1905102771
