  62
        -98.93679159
 C         -2.6111334403       -1.2818189604        0.1632138891
 C         -2.5932077209       -0.2250067201       -0.7745512006
 C         -3.7478265612        0.6963345595       -0.7571312200
 C         -4.7433884509        0.4721280589        0.1205186902
 C         -5.9800281811        1.2988963284        0.3493246007
 C         -5.6912694914        2.5787117682        1.1528728311
 C         -4.4201660117        3.3221929988        0.7490111010
 H         -4.2619267218        4.1260958686        1.4728818912
 H         -3.5673434415        2.6450737090        0.8274883006
 C         -4.4454993423        3.9477281992       -0.6435392488
 H         -5.2580635125        4.6762465689       -0.6930747483
 H         -3.5050995425        4.4892941996       -0.7736077488
 C         -4.5997946722        2.9731854495       -1.8121837690
 H         -4.3869484426        3.5298134699       -2.7297236289
 H         -5.6256097321        2.6243581492       -1.8946218089
 C         -3.6365994218        1.7898766299       -1.7920607097
 H         -2.6097240619        2.1652597402       -1.7167828198
 H         -3.6883288819        1.2845183602       -2.7643043198
 H         -5.5906872410        2.2992584079        2.2044791810
 H         -6.5504077016        3.2452831879        1.0620590715
 H         -6.4521789514        1.5324931985       -0.6002453291
 H         -6.6728965808        0.6781724579        0.9216388307
 O         -4.7228997303       -0.5724718714        0.9978502798
 C         -3.6689799300       -1.4619588911        1.0526905993
 O         -3.7847287095       -2.3532032314        1.9189825490
 O         -1.6537297311       -0.0436843595       -1.5929947507
 C         -1.4471419699       -2.2542083600        0.2361062985
 C         -0.1789004301       -1.4906741997        0.5318197885
 C         -0.1387239801       -0.6878174000        1.6696065087
 C          0.9907779297        0.0436665902        1.9786795387
 C          2.1054545695       -0.0029521691        1.1585249184
 C          2.0812152195       -0.8079577887        0.0289546781
 C          0.9460674197       -1.5532733290       -0.2728902118
 H          0.9429895197       -2.1711287188       -1.1570035820
 N          3.1912022493       -0.8461123281       -0.8239336521
 S          4.7485584195       -0.7980681777       -0.2220847225
 O          5.5731836494       -1.3305096971       -1.2846615229
 O          4.8487737800       -1.4618275081        1.0570601773
 C          5.0872938489        0.9404973823       -0.0365716820
 C          4.7762904184        1.7845171525       -1.0844942017
 C          5.0460872879        3.1376288026       -0.9565294313
 C          5.6234351980        3.6210449224        0.2081839587
 C          5.9341088486        2.7602072722        1.2494946184
 C          5.6650239290        1.4057328621        1.1284671680
 H          5.8819187795        0.7016059720        1.9160430477
 H          6.3826572787        3.1379395221        2.1542885484
 H          5.8309938277        4.6750462825        0.3049476490
 H          4.8038741275        3.8100076828       -1.7638482010
 H          4.3267828183        1.3732464027       -1.9729714317
 H          3.0998693894       -1.4664578879       -1.6138649323
 H          2.9876983794        0.5697161711        1.3926523484
 H          1.0047910497        0.6624335500        2.8632577589
 H         -1.0126036700       -0.6446270906        2.3061909589
 H         -1.6550363495       -2.9123457404        1.0921938584
 C         -1.3839525099       -3.0966306296       -1.0201699918
 C         -0.7322838195       -4.4457537394       -0.9877280224
 C         -2.2223195295       -4.3350372099       -1.1038837120
 H         -2.6866428097       -4.5811600097       -2.0470515219
 H         -2.8249494092       -4.5852544904       -0.2428392419
 H         -0.1750955795       -4.7729642889       -1.8528971626
 H         -0.3200078691       -4.7791637996       -0.0471838126
 H         -1.2854298303       -2.4998229093       -1.9196805016
