  62
        -98.94051757
 C          1.3648756032        0.9686796208       -0.1371507335
 C          2.4767944258        0.9454457887        0.7411874122
 C          3.4631194683       -0.1322907044        0.5588533140
 C          3.2683390276       -1.0402436572       -0.4153990657
 C          4.0591174028       -2.2707479812       -0.8092305383
 C          5.4625031770       -2.5063045737       -0.2574131623
 C          6.5198378916       -1.5254150330       -0.7640759828
 H          6.7021974336       -1.7297799963       -1.8221105645
 H          7.4495444277       -1.7151933279       -0.2234290308
 C          6.1622352121       -0.0468762923       -0.6361768974
 H          5.2794622674        0.1699448974       -1.2410162929
 H          6.9894330392        0.5341422377       -1.0527995421
 C          5.9201978685        0.4460473212        0.7888699254
 H          5.8284753318        1.5347844778        0.7499213984
 H          6.7831813222        0.2055765996        1.4128090198
 C          4.6548477351       -0.0996916547        1.4723300848
 H          4.3932647477        0.5784026079        2.2900365412
 H          4.8318694326       -1.0805620567        1.9075813036
 H          5.7595550378       -3.5079396665       -0.5801616331
 H          5.4408784892       -2.5203794417        0.8283621876
 H          3.4280399865       -3.1235605286       -0.5335482235
 H          4.1005747148       -2.2624925738       -1.9033127534
 O          2.1831641297       -0.9814918271       -1.2382950987
 C          1.2082775003       -0.0012564391       -1.1265102731
 O          0.2958896746       -0.1180195655       -1.9671240366
 H         -0.7874347082       -0.3870402328        0.4181217173
 C         -1.2260499761        0.3605698876        1.0592147745
 C         -0.7478725594        1.6612841366        1.0387342266
 C         -1.3169956731        2.5943976271        1.8992837298
 C         -2.3383119092        2.2302750239        2.7568747806
 C         -2.8187656178        0.9330666416        2.7676960732
 C         -2.2543519267       -0.0093065804        1.9157306151
 N         -2.7028563514       -1.3374070875        1.9248217196
 S         -2.8001785233       -2.2172894568        0.5045323226
 O         -3.6793225255       -3.3184416714        0.8408705933
 O         -1.4829537733       -2.5831842516        0.0505559246
 C         -3.6280512215       -1.1282715571       -0.6390526180
 C         -4.9819886294       -0.9291800529       -0.4414443130
 C         -5.6613437640       -0.0513446381       -1.2685698045
 C         -4.9767052623        0.6150221699       -2.2742270996
 C         -3.6209011408        0.4003440275       -2.4611064008
 C         -2.9327248150       -0.4790997019       -1.6375067148
 H         -1.8755532994       -0.6554520438       -1.7641963648
 H         -3.0837647910        0.9129421742       -3.2436441817
 H         -5.5022042192        1.3028789964       -2.9177547763
 H         -6.7174937789        0.1123201849       -1.1274416773
 H         -5.4785283686       -1.4781879948        0.3422171473
 H         -3.4979465064       -1.5110950687        2.5220633222
 H         -3.6135711614        0.6448439974        3.4382672667
 H         -2.7666060012        2.9624545095        3.4239523484
 H         -0.9424188663        3.6064791665        1.9046254655
 C          0.3531820015        2.0755102718        0.0876301627
 H          0.9148304243        2.8876650941        0.5710296139
 C         -0.2664553744        2.6140706908       -1.1883217193
 C         -0.6952511595        4.0474508732       -1.2634846919
 C          0.5042055534        3.5825944604       -2.0324639118
 H          0.4366992283        3.4944826697       -3.1061505382
 H          1.4819844522        3.8801551702       -1.6818877360
 H         -0.5251043166        4.6730208032       -0.4009327010
 H         -1.5956192546        4.2848397422       -1.8083718195
 H         -0.8714266705        1.8811424917       -1.7053969012
 O          2.6396974465        1.8018062855        1.6529068728
