  62
        -98.93961181
 C          2.5006204400        0.9533337495       -0.0690829615
 C          3.6427593902        1.0524063299        0.7603014982
 C          4.9026118200        0.5874015396        0.1704049682
 C          4.9161484298        0.1215540290       -1.0920332416
 C          6.1260969696       -0.3710269314       -1.8389342116
 C          6.4828426896       -1.8363516713       -1.5531739610
 C          7.0876421799       -2.1025944507       -0.1740351610
 H          7.4883399698       -3.1181063407       -0.1906629807
 H          7.9255898299       -1.4247293707       -0.0085776415
 C          6.0911851701       -1.9850695101        0.9877813691
 H          6.2114052902       -2.8383686198        1.6592600695
 H          5.0711741800       -2.0272909303        0.5981386893
 C          6.2475535703       -0.7194318597        1.8308961385
 H          5.4694303505       -0.7203709793        2.5986880587
 H          7.2166298704       -0.7321334195        2.3346072383
 C          6.1267382102        0.5870379599        1.0355990279
 H          6.0322607504        1.4126396202        1.7452704376
 H          7.0203900201        0.7443698696        0.4322673077
 H          5.5850917195       -2.4457386913       -1.6811017606
 H          7.2066198894       -2.1486066817       -2.3095294010
 H          6.9821446397        0.2642717587       -1.6099226421
 H          5.8950657694       -0.2744660419       -2.9019199616
 O          3.7986201296        0.0625680287       -1.8645622213
 C          2.5629423997        0.4571035289       -1.3711104013
 O          1.6223159695        0.3265604786       -2.1769761510
 O          3.6096449204        1.5061703904        1.9360806480
 C          1.1569089101        1.3955866199        0.4778784886
 C          0.1698751601        0.2539587799        0.4501361493
 C          0.5728790901       -1.0015748999        0.8977152998
 C         -0.3035842999       -2.0691884399        0.8964062905
 C         -1.6059309200       -1.9096830700        0.4565973007
 C         -2.0255234000       -0.6586992102        0.0280266702
 C         -1.1414943000        0.4146692397        0.0322022995
 H         -1.4831869300        1.3801564796       -0.3070333909
 N         -3.3452917201       -0.4865198804       -0.4215524996
 S         -4.5717032300       -1.2731173399        0.4325276610
 O         -4.3429939197       -1.1494700393        1.8544796309
 O         -4.6893693101       -2.6191523301       -0.0705318283
 C         -5.9945968300       -0.3167535901       -0.0536129191
 C         -6.4331453098        0.7031748403        0.7696208505
 C         -7.5255594399        1.4596497902        0.3755542804
 C         -8.1551228701        1.1867613896       -0.8296165394
 C         -7.7029538404        0.1599608093       -1.6452613390
 C         -6.6118551303       -0.6011527006       -1.2570053889
 H         -6.2312264705       -1.4137416909       -1.8535426886
 H         -8.1969552406       -0.0501837712       -2.5801533988
 H         -9.0055005702        1.7764443695       -1.1336812595
 H         -7.8811890497        2.2565682705        1.0086641601
 H         -5.9186860096        0.8733786207        1.7018315703
 H         -3.5712895101        0.4827483396       -0.5968913800
 H         -2.3013236600       -2.7338297700        0.4492071112
 H          0.0283576701       -3.0376867197        1.2405682409
 H          1.5892429002       -1.1314078298        1.2449231297
 H          1.3432436804        1.6565005203        1.5309617984
 C          0.6779626200        2.6340656395       -0.2510224919
 C         -0.1809231198        3.6436458499        0.4492746278
 C          1.2489024702        3.9640995797        0.1363533174
 H          1.4606779600        4.6810919793       -0.6425376130
 H          1.9615958903        3.9782100500        0.9479377072
 H         -0.9509092199        4.1472938797       -0.1158727522
 H         -0.4420903596        3.4499356404        1.4787992280
 H          0.5038215998        2.4520252391       -1.3058448718
