  62
        -98.94445123
 C          1.8131357379        1.5406953529        0.0622979784
 C          1.6630858927        0.4838262142       -0.8672555119
 C          2.8107956065       -0.4274797963       -0.9951728494
 C          3.8729798812       -0.2686985016       -0.1845056728
 C          5.0615145584       -1.1834768891       -0.1407764834
 C          4.8370579287       -2.3326390366        0.8530727446
 C          3.5017181926       -3.0544660544        0.6716518414
 H          3.4619449516       -3.8566083405        1.4114906939
 H          2.6901578183       -2.3607225324        0.9028903216
 C          3.2859318081       -3.6394492134       -0.7311467679
 H          4.2402042072       -3.7036194095       -1.2553339176
 H          2.9007213518       -4.6566254714       -0.6344483775
 C          2.2874347766       -2.8663424753       -1.5939722090
 H          1.3443951873       -2.7489713180       -1.0566311948
 H          2.0776736272       -3.4606331775       -2.4875266426
 C          2.7434193169       -1.4809840558       -2.0663215850
 H          3.7072744311       -1.5650396169       -2.5734694143
 H          2.0051888783       -1.1240395734       -2.7911080007
 H          5.6557645374       -3.0462573131        0.7451545494
 H          4.8723901966       -1.9253088451        1.8660824776
 H          5.2443301073       -1.5816980587       -1.1370542603
 H          5.9310886406       -0.6050172570        0.1750920183
 O          3.9544713925        0.7205726320        0.7410304448
 C          2.9472019390        1.6610719445        0.8691511101
 O          3.1698424700        2.5376014212        1.7280031798
 H         -1.7616988233        1.9173571389       -0.7987790091
 C         -1.6563975971        1.7298887733        0.2566256279
 C         -0.4681949747        2.0046502017        0.9159301772
 C         -0.3731945415        1.7117948008        2.2752081561
 C         -1.4432841667        1.1710952485        2.9603880434
 C         -2.6283479002        0.8974890664        2.2988211502
 C         -2.7293600570        1.1726665812        0.9415128708
 N         -3.9187373249        0.8903313908        0.2362978214
 S         -3.8142572367       -0.2591607276       -0.9842358991
 O         -3.0551020823        0.2625263437       -2.0876038292
 O         -5.1876411257       -0.6187647376       -1.2692922052
 C         -2.9922977395       -1.6208532205       -0.1768153344
 C         -1.6157104226       -1.6279537459       -0.0708870712
 C         -1.0189759448       -2.6139492297        0.7007247049
 C         -1.7936923320       -3.5727863336        1.3340575442
 C         -3.1739012980       -3.5587808570        1.2026433371
 C         -3.7807029803       -2.5660300971        0.4515005108
 H         -4.8503658734       -2.5085894990        0.3284639020
 H         -3.7754905404       -4.3087611417        1.6903481306
 H         -1.3163753134       -4.3334197149        1.9315835308
 H          0.0545904375       -2.6214099221        0.8106739062
 H         -1.0328746897       -0.8812859699       -0.5894515484
 H         -4.6913411191        0.6478981530        0.8422924012
 H         -3.4684393760        0.4741464988        2.8286242680
 H         -1.3556114690        0.9580429599        4.0147952426
 H          0.5575719775        1.9209690066        2.7847007371
 C          0.7362564438        2.6022259155        0.2291006893
 H          1.1651825645        3.3500549860        0.9111347328
 C          0.4159800178        3.2800206647       -1.0858042287
 C         -0.2493022562        4.6221708583       -1.0748389304
 C          1.1878718903        4.5009654717       -1.4821809249
 H          1.4434228382        4.6335948232       -2.5228505856
 H          1.9447800512        4.8574377730       -0.7983459286
 H         -0.9841372766        4.8389623060       -1.8352255817
 H         -0.4678468416        5.0625178861       -0.1135870277
 H          0.1465283698        2.5880302553       -1.8744511415
 O          0.6304976308        0.3012920391       -1.5643249952
