  62
        -98.94068990
 C          2.0694162832        0.9651207483        0.2876415659
 C          1.9415162837       -0.0322039288       -0.7111908180
 C          2.1889331266       -1.4125165562       -0.2702515797
 C          2.4850376971       -1.6711904268        1.0147890646
 C          2.7291304499       -3.0290131069        1.6162132957
 C          4.1590081683       -3.5531595380        1.4232218922
 C          4.5043430010       -4.0005535169        0.0022083063
 H          5.4490168871       -4.5448340332        0.0590732711
 H          3.7455561453       -4.6992616946       -0.3512639408
 C          4.6571284270       -2.8520812606       -1.0047842345
 H          4.7856635384       -1.9103048614       -0.4665483926
 H          5.5590517657       -3.0073463128       -1.6009189251
 C          3.4890648106       -2.7054522689       -1.9802932716
 H          3.4280650051       -3.5908006030       -2.6170864358
 H          3.6816718071       -1.8412987637       -2.6209345404
 C          2.1281971363       -2.4967027727       -1.3035706496
 H          1.4025893758       -2.1885080654       -2.0613467943
 H          1.7817344188       -3.4278654383       -0.8545774869
 H          4.2834179706       -4.4089335379        2.0906890500
 H          4.8594498104       -2.7778408469        1.7415813515
 H          2.0161863709       -3.7431785854        1.2024569578
 H          2.5383680021       -2.9306680796        2.6871407308
 O          2.5839632117       -0.6890316233        1.9500018905
 C          2.3753623515        0.6359086905        1.6108690267
 O          2.5011320207        1.4299265711        2.5669542883
 O          1.6377853676        0.1882855372       -1.9138587589
 C          1.8023528397        2.4419705830        0.0486903846
 C          0.3390634509        2.7574109932        0.2618031370
 C         -0.0481140402        3.9108761855        0.9348911929
 C         -1.3864346069        4.1852284170        1.1507081980
 C         -2.3624373784        3.3029060920        0.7239976710
 C         -1.9853448870        2.1493527347        0.0462482951
 C         -0.6443883706        1.8969118504       -0.2014102546
 H         -0.3780058844        1.0007929275       -0.7401998863
 N         -2.9419307579        1.2238675497       -0.4012653921
 S         -2.5475627075       -0.4179327504       -0.2806405018
 O         -1.7906413947       -0.6587899464        0.9276172378
 O         -1.9491298121       -0.8477889066       -1.5183615448
 C         -4.1803298977       -1.1249093016       -0.1392770463
 C         -4.9224444284       -1.3175594026       -1.2895197282
 C         -6.2054833911       -1.8299926663       -1.1810938253
 C         -6.7227236399       -2.1389083649        0.0683608827
 C         -5.9656877885       -1.9418410951        1.2134338991
 C         -4.6822597089       -1.4277596534        1.1121571348
 H         -4.0534354174       -1.2638191880        1.9727382484
 H         -6.3687119792       -2.1857487211        2.1831248964
 H         -7.7211148258       -2.5384206717        0.1502736051
 H         -6.7956737242       -1.9870188239       -2.0694012096
 H         -4.4733076488       -1.0712430265       -2.2375271207
 H         -3.8689322760        1.4109600184       -0.0429229089
 H         -3.4060198555        3.5016429964        0.9150742540
 H         -1.6722655018        5.0838804428        1.6757791996
 H          0.7095478396        4.5839654823        1.3073891306
 H          2.3705355783        2.9798441662        0.8214347548
 C          2.2509352793        2.9445979107       -1.3098757244
 C          2.6246970296        4.3860092812       -1.4731305607
 C          3.6842260764        3.3270083285       -1.5172975419
 H          4.1460909975        3.0904458174       -2.4637998485
 H          4.3507931966        3.2365925223       -0.6716484271
 H          2.3563145540        4.8837045031       -2.3921436815
 H          2.5820965688        5.0195072020       -0.6004200622
 H          1.7421356518        2.4576594552       -2.1314413347
