  62
        -98.94087891
 C         -1.8458727308       -0.7148714193        0.5561811592
 C         -2.3141759203        0.0213252804       -0.5605631612
 C         -3.4540472700        0.9134964309       -0.2997153018
 C         -3.9301016803        1.0530993015        0.9497585580
 C         -5.0722501801        1.9365939921        1.3722306674
 C         -6.4560316002        1.3013825824        1.1784062674
 C         -6.9255715400        1.1943044320       -0.2730514126
 H         -7.9865296500        0.9378338224       -0.2478517928
 H         -6.8379705495        2.1687615518       -0.7546259430
 C         -6.1824725601        0.1386596314       -1.1037445921
 H         -5.6620159805       -0.5509727985       -0.4351320217
 H         -6.9044658602       -0.4519361785       -1.6720190420
 C         -5.1781800997        0.7110177407       -2.1043119521
 H         -5.7066527594        1.2974685506       -2.8590785624
 H         -4.6860882799       -0.1229677597       -2.6113371217
 C         -4.0910150196        1.5919926906       -1.4745459222
 H         -3.3113563894        1.7641098100       -2.2209138621
 H         -4.5102929593        2.5536374809       -1.1790745727
 H         -6.4518629907        0.3085229926        1.6343884878
 H         -7.1751173401        1.9148679829        1.7261493270
 H         -4.9320082202        2.1386857524        2.4364569274
 H         -5.0249607096        2.8817637818        0.8304287771
 O         -3.3881744107        0.4004125817        2.0129754784
 C         -2.3527401310       -0.5045685787        1.8409746890
 O         -1.9616578314       -1.0380456084        2.8991602193
 O         -1.8211331501       -0.0508346803       -1.7144493011
 C         -0.7106051711       -1.7167476398        0.4329120498
 C          0.4249743193       -1.1155387105       -0.3588566402
 C          0.9408207694       -1.6734201611       -1.5203113199
 C          1.9851533597       -1.0578372717       -2.1890679799
 C          2.5411931300        0.1149345683       -1.7141333702
 C          2.0397576699        0.6754276689       -0.5455782505
 C          0.9983105696        0.0547060095        0.1256463495
 H          0.6036436995        0.4959859400        1.0334022592
 N          2.6068836702        1.8603442089       -0.0464194309
 S          4.2748089803        1.9862994784       -0.0294783306
 O          4.5747292103        2.8901026787        1.0593189891
 O          4.7460560107        2.3930539077       -1.3299365507
 C          4.8675756296        0.3436382183        0.3386308302
 C          5.6809217096       -0.3137286023       -0.5615699194
 C          6.1049140391       -1.5997542423       -0.2670764788
 C          5.7063542287       -2.2043338717        0.9146878314
 C          4.8915814287       -1.5294259611        1.8110494809
 C          4.4670438492       -0.2427394911        1.5229565303
 H          3.8372829392        0.3096634494        2.2021544700
 H          4.5820921183       -2.0007631006        2.7301265510
 H          6.0322883283       -3.2071775417        1.1410997318
 H          6.7403099491       -2.1261321428       -0.9608180784
 H          5.9638081400        0.1927643672       -1.4699195795
 H          2.2031621601        2.1778593294        0.8219476489
 H          3.3410608503        0.6154151878       -2.2353892402
 H          2.3674525497       -1.4949704922       -3.0987167296
 H          0.5075959191       -2.5751849911       -1.9197329996
 H         -0.3532645013       -1.8647940995        1.4655018400
 C         -1.1436007514       -3.0851107198       -0.0727199697
 C         -2.5384815516       -3.5850008593        0.1542355102
 C         -2.0769075012       -3.2559733900       -1.2320034299
 H         -1.8981075014       -4.0716234603       -1.9174372995
 H         -2.4547186508       -2.3640180600       -1.7052393703
 H         -2.6747099320       -4.6222258391        0.4214925105
 H         -3.2383972215       -2.9163289589        0.6347824798
 H         -0.3514716717       -3.8206367901        0.0267437407
