  62
        -98.93495669
 C         -2.4726828709       -1.4808009400        0.2246901893
 C         -2.7523675106       -0.5967877301       -0.8435335609
 C         -3.7360196406        0.4720507200       -0.5756774212
 C         -4.2777108208        0.5910585602        0.6498874987
 C         -5.3165930009        1.5478702403        1.1966818584
 C         -5.6979839007        2.8114568902        0.4300135081
 C         -4.5900898206        3.8599768401        0.3335288482
 H         -4.9368918705        4.6654362201       -0.3174063320
 H         -4.4241478908        4.2833824703        1.3273263382
 C         -3.2439980806        3.3532016800       -0.1790381115
 H         -2.8360564907        2.6185570901        0.5191851087
 H         -2.5494837705        4.1981208000       -0.1912166515
 C         -3.2635533003        2.7487098398       -1.5817156614
 H         -2.2244361003        2.5804213197       -1.8793402212
 H         -3.6991484902        3.4629513997       -2.2832457016
 C         -4.0098072604        1.4099560398       -1.7165087014
 H         -5.0791120703        1.5646680999       -1.8373627116
 H         -3.6452465602        0.9114680697       -2.6194763112
 H         -6.5323246908        3.2638895403        0.9728153579
 H         -6.0678933705        2.5559766401       -0.5585945319
 H         -4.9645039011        1.8275510904        2.1947521684
 H         -6.2211982409        0.9481669003        1.3467304683
 O         -3.9532262611       -0.2679168397        1.6603891889
 C         -3.0615424311       -1.3074182798        1.4794035992
 O         -2.8802120113       -2.0062373897        2.4963293093
 O         -2.2241734304       -0.6763126203       -1.9836693408
 C         -1.5154188809       -2.6579185400        0.1125627896
 C         -0.0960262109       -2.2136680401        0.3556378898
 C          0.6833004589       -2.8036998800        1.3431134400
 C          1.9779833689       -2.3694282600        1.5701442302
 C          2.5210336890       -1.3435921901        0.8174514602
 C          1.7470386692       -0.7416722702       -0.1662933801
 C          0.4503134293       -1.1788449102       -0.3918319702
 H         -0.1490515706       -0.7104341703       -1.1589744004
 N          2.2894577394        0.2991812896       -0.9423475401
 S          2.9800904893        1.5948569597       -0.1266078701
 O          2.3870066191        1.7755464299        1.1789492797
 O          2.8862224596        2.7147682696       -1.0374843503
 C          4.6891588493        1.1213032197        0.0354206002
 C          5.2854059891        1.1013185498        1.2809685603
 C          6.6180819190        0.7320067597        1.3800230506
 C          7.3266992192        0.3918536296        0.2379069008
 C          6.7137103994        0.4195177794       -1.0060597893
 C          5.3824418595        0.7889069795       -1.1121249596
 H          4.8695979897        0.8261102494       -2.0587220397
 H          7.2680513296        0.1545193493       -1.8919644792
 H          8.3627780392        0.1030359195        0.3178506210
 H          7.0960649389        0.7098478198        2.3462527307
 H          4.6925912189        1.3675432099        2.1417163202
 H          1.6574033596        0.6284927896       -1.6587209403
 H          3.5280342090       -1.0007515902        0.9907086403
 H          2.5714563587       -2.8350202199        2.3420577104
 H          0.2612725287       -3.5947638299        1.9456609101
 H         -1.7969593811       -3.3293021299        0.9387812797
 C         -1.6903166007       -3.4379136202       -1.1849602803
 C         -0.6400690905       -3.5402967204       -2.2464361501
 C         -0.9448324307       -4.7247678103       -1.3830517400
 H         -1.4664194807       -5.5654462203       -1.8146078400
 H         -0.2171368709       -4.9927778302       -0.6317959798
 H         -0.9708139803       -3.5448794405       -3.2739125402
 H          0.2965244895       -3.0277387204       -2.0944121100
 H         -2.7181944606       -3.4151077602       -1.5322847605
