  62
        -98.93860597
 C         -1.8902918418       -0.9737133917        0.3666854721
 C         -2.2275553729        0.1641101876       -0.4018510333
 C         -3.5491664939        0.7686750350       -0.1428930230
 C         -4.3510570415        0.2452237430        0.8021630779
 C         -5.7098116206        0.6766015686        1.3135229070
 C         -6.5606035586        1.6752914653        0.5331515274
 C         -7.0765976109        1.1628958564       -0.8109880093
 H         -7.8178969796        0.3818661609       -0.6238932383
 H         -7.5831254847        1.9867696048       -1.3185809094
 C         -6.0181154601        0.5796508098       -1.7436645600
 H         -6.5213591975        0.2558789550       -2.6587858957
 H         -5.5774873418       -0.3093778304       -1.2879370624
 C         -4.8991371681        1.5392217137       -2.1438165121
 H         -5.3292839590        2.4507971621       -2.5633484505
 H         -4.3150229939        1.0529073682       -2.9296992586
 C         -3.9250735830        1.9297345832       -1.0184473820
 H         -2.9980083216        2.2799111840       -1.4815393807
 H         -4.3182569598        2.7484292721       -0.4204307078
 H         -6.0223572554        2.6096780944        0.4034246720
 H         -7.4304451116        1.8965152658        1.1577329802
 H         -5.5334820583        1.0820972182        2.3161313662
 H         -6.2808283135       -0.2470006831        1.4522745098
 O         -3.9725438881       -0.8398763063        1.5382589699
 C         -2.7624067156       -1.4735308948        1.3384158496
 O         -2.5786596213       -2.4632748662        2.0742792242
 O         -1.4765339584        0.6815954535       -1.2726327657
 C         -0.5812704883       -1.7344962194        0.2175868412
 C          0.5462661926       -1.0208847075        0.9241888929
 C          1.1458550961       -1.5760070256        2.0483247446
 C          2.1939888332       -0.9301644471        2.6812345247
 C          2.6669738969        0.2785280986        2.2033335974
 C          2.0700341846        0.8426724071        1.0833198872
 C          1.0221142816        0.1929695543        0.4486754539
 H          0.5521423021        0.6435613462       -0.4127991849
 N          2.5602083740        2.0652086855        0.5781531992
 S          4.1832109197        2.0592445686        0.1549697403
 O          4.9851186490        2.1904597965        1.3456307021
 O          4.3361562085        3.1057764308       -0.8305398257
 C          4.4377346200        0.4534562526       -0.5787327102
 C          3.8952217126        0.2178119949       -1.8263320931
 C          4.0112532622       -1.0464963088       -2.3796022404
 C          4.6551448239       -2.0517100949       -1.6744580247
 C          5.1951018202       -1.7987076186       -0.4233355069
 C          5.0856262962       -0.5347308033        0.1338722130
 H          5.4924162515       -0.2957871464        1.1025745941
 H          5.6962362621       -2.5822377550        0.1216885455
 H          4.7368775722       -3.0377886322       -2.1039161888
 H          3.5955505776       -1.2430293552       -3.3550341113
 H          3.4026206756        1.0237924970       -2.3466624893
 H          2.0027409312        2.4219206808       -0.1854791627
 H          3.4862913276        0.7947271354        2.6772914492
 H          2.6480778971       -1.3727811438        3.5546011449
 H          0.7751536379       -2.5154891153        2.4319290488
 H         -0.7412184712       -2.6922484025        0.7300279246
 C         -0.2157455072       -2.0186326591       -1.2272449035
 C          0.7905298223       -3.0889772466       -1.5195236544
 C         -0.6536940322       -3.3047025174       -1.8572933076
 H         -0.9506160139       -3.2940740433       -2.8953784643
 H         -1.2244132015       -3.9914226525       -1.2488747490
 H          1.4901033548       -2.9304564473       -2.3250865090
 H          1.2012586509       -3.6294522728       -0.6804343904
 H         -0.2109465783       -1.1366891907       -1.8532128055
