  62
        -98.93245880
 C         -2.4916386251       -1.4743117531        0.3118321026
 C         -2.7707145789       -0.6104895734       -0.7750088494
 C         -3.8352079450        0.3852612874       -0.5537206145
 C         -4.4751033428        0.4216695011        0.6281188038
 C         -5.5146826458        1.4286692422        1.0304244350
 C         -4.8372531797        2.7604085623        1.4123741604
 C         -5.1612132487        3.9254582156        0.4766002881
 H         -6.1698380440        4.2839638359        0.6923561461
 H         -4.4667893636        4.7351675083        0.7106415016
 C         -5.0846511480        3.6210237783       -1.0227254117
 H         -5.0738116099        4.5817349674       -1.5419675234
 H         -5.9931689627        3.1070037612       -1.3399623717
 C         -3.8717374886        2.8007890464       -1.4808698762
 H         -3.0454175538        2.9110221129       -0.7779690293
 H         -3.5308214765        3.2032989929       -2.4371194925
 C         -4.1579420678        1.3030989239       -1.7006825760
 H         -5.2030047433        1.1696892641       -1.9932255775
 H         -3.5377039692        0.9467918625       -2.5286829402
 H         -5.1344528978        3.0424077498        2.4235111227
 H         -3.7572208351        2.6001476485        1.4363603062
 H         -6.2192673194        1.5766902847        0.2151201952
 H         -6.0507183351        1.0165339121        1.8855179072
 O         -4.1852173455       -0.4291786368        1.6460457467
 C         -3.1959086312       -1.3870020457        1.5168562535
 O         -3.0413047364       -2.0999785606        2.5278806033
 O         -2.1714393971       -0.6457097744       -1.8823955842
 C         -1.4301011485       -2.5623011813        0.2622454270
 C         -0.0641160707       -2.0117864283        0.5830506328
 C          0.7382783248       -2.6037302351        1.5509364133
 C          1.9987551347       -2.1007165309        1.8235999492
 C          2.4830101441       -0.9999931741        1.1397588856
 C          1.6891499285       -0.4013180843        0.1700691294
 C          0.4264409001       -0.9077838758       -0.1008596346
 H         -0.1821124715       -0.4477092716       -0.8655653668
 N          2.1673056298        0.7234948887       -0.5273387464
 S          3.6617539226        0.5829867044       -1.2837425685
 O          3.6403152126        1.5510434848       -2.3580837788
 O          3.9368360348       -0.7857322807       -1.6557146536
 C          4.8180745900        1.1224623591       -0.0418523690
 C          5.8607392896        0.2984547425        0.3339916705
 C          6.7531377301        0.7440155198        1.2968228827
 C          6.5883580497        1.9990418352        1.8624827180
 C          5.5374976487        2.8157172676        1.4716900429
 C          4.6425744822        2.3767474571        0.5091549212
 H          3.8154447699        2.9807853032        0.1752242178
 H          5.4126996133        3.7911242985        1.9137049882
 H          7.2828970347        2.3431489808        2.6124901781
 H          7.5709311034        0.1110367787        1.6016670369
 H          5.9453816043       -0.6714968101       -0.1295524265
 H          1.4871189677        1.1087501382       -1.1677587669
 H          3.4637612519       -0.6045662136        1.3479570916
 H          2.6109385465       -2.5697983318        2.5785565013
 H          0.3636281872       -3.4575863383        2.0964323243
 H         -1.7024567659       -3.2610888179        1.0684933379
 C         -1.4571592907       -3.3496573836       -1.0428551906
 C         -0.3616681404       -3.3204380490       -2.0622985430
 C         -0.5614061754       -4.5403074740       -1.2170723881
 H         -0.9644221874       -5.4310197576       -1.6745673709
 H          0.1659145442       -4.7303577314       -0.4420542342
 H         -0.6483941515       -3.3533688987       -3.1026339020
 H          0.5062719298       -2.7065813237       -1.8757072881
 H         -2.4656070100       -3.4428329983       -1.4335536795
