  62
        -98.93805219
 C         -2.1066830001       -1.0560476006       -0.3979690192
 C         -3.1727245401       -1.1459828901        0.5318709809
 C         -4.4118828601       -0.4298479603        0.1900324905
 C         -4.4735285302        0.2652907390       -0.9584533599
 C         -5.6357769902        1.0394121586       -1.5286163303
 C         -6.4568277302        1.9013429292       -0.5604780108
 C         -5.6534418002        2.5326203799        0.5860364988
 H         -4.5836062702        2.4189836798        0.4012918088
 H         -5.8648849802        3.6030554899        0.6203349781
 C         -6.0005550601        1.9413228407        1.9544491791
 H         -7.0849615301        1.8304004707        2.0230574793
 H         -5.6946827601        2.6481677512        2.7295621987
 C         -5.3388873101        0.6021198410        2.2769456099
 H         -4.2665177401        0.7477693011        2.4333221798
 H         -5.7538403100        0.2410217715        3.2210242002
 C         -5.5096341901       -0.4943261097        1.2126841406
 H         -5.4029551100       -1.4628886194        1.7086099712
 H         -6.4932101901       -0.4473427400        0.7519036806
 H         -6.9211297003        2.6888317188       -1.1566412313
 H         -7.2675496102        1.3074637594       -0.1409012904
 H         -6.3020667602        0.3313264183       -2.0300886298
 H         -5.2001634303        1.6743059581       -2.3040558407
 O         -3.4232057502        0.3282662385       -1.8237401900
 C         -2.2194826302       -0.3120687313       -1.5711208296
 O         -1.3647946603       -0.1418741319       -2.4622384298
 O         -3.0968644200       -1.8092461994        1.5997521513
 C         -0.8090811601       -1.7697168104       -0.0539202788
 C          0.2129439099       -0.7348165701        0.3479460405
 C          0.2940267399       -0.3324193892        1.6780702603
 C          1.1835153699        0.6527141810        2.0656095496
 C          2.0085767399        1.2600162805        1.1353804692
 C          1.9339143798        0.8662672096       -0.1945068905
 C          1.0519276398       -0.1354780206       -0.5796088799
 H          0.9876496098       -0.4158303913       -1.6190406197
 N          2.7570980198        1.4841783791       -1.1475184410
 S          4.3518322598        1.7951646894       -0.7642956012
 O          4.4380885898        2.9930258499        0.0345721580
 O          5.0465296097        1.8321625186       -2.0320386713
 C          4.8880246998        0.3919936700        0.1992881196
 C          4.8202333599       -0.8600419904       -0.3793037996
 C          5.2117860599       -1.9627324799        0.3620543811
 C          5.6610930300       -1.7959709191        1.6632991109
 C          5.7271969400       -0.5321968287        2.2284899802
 C          5.3359786099        0.5744188308        1.4916467995
 H          5.3699719199        1.5745950510        1.8920827789
 H          6.0788833300       -0.4049987481        3.2396571301
 H          5.9620694200       -2.6571270087        2.2387429315
 H          5.1624792999       -2.9467391402       -0.0757292483
 H          4.4709677698       -0.9556064210       -1.3948634195
 H          2.6475894097        1.1281307685       -2.0847983807
 H          2.6921679799        2.0450107807        1.4152966287
 H          1.2331969600        0.9556224917        3.1003906994
 H         -0.3630315900       -0.7919019588        2.4028281906
 H         -1.0422549600       -2.3748310698        0.8322571816
 C         -0.3388074401       -2.6919185910       -1.1591265182
 C          0.7065868199       -3.7210776708       -0.8527445476
 C         -0.7090488301       -4.1426396210       -1.1052206073
 H         -0.9413297801       -4.6484043116       -2.0305505770
 H         -1.3013347300       -4.4770127505       -0.2661044471
 H          1.4489224699       -3.9419154912       -1.6042144475
 H          1.0752410000       -3.7673727702        0.1606350524
 H         -0.3221567902       -2.2256660516       -2.1360831085
