  62
        -98.94428797
 C         -2.0756629769       -1.3680785251       -0.0021918870
 C         -2.4049579989       -0.3927301909       -0.9743361482
 C         -3.7682213978        0.1556275259       -0.8998702690
 C         -4.6142740946       -0.2867008274        0.0471368264
 C         -6.0074586000        0.2258490455        0.2660143599
 C         -6.0221341226        1.3827137618        1.2749315035
 C         -4.9896723355        2.4714209867        0.9818069359
 H         -5.1140711574        3.2497368894        1.7379344902
 H         -3.9868250810        2.0572699331        1.1112394634
 C         -5.1036159952        3.0947174620       -0.4164529602
 H         -6.0877405742        2.8844557129       -0.8369279021
 H         -5.0158126910        4.1793680489       -0.3240878612
 C         -4.0243578181        2.6436365580       -1.4025286062
 H         -3.0383976811        2.7665554438       -0.9464126110
 H         -4.0651775552        3.3020301914       -2.2745450920
 C         -4.1458029791        1.2014967276       -1.9113045221
 H         -5.1561375096        1.0279680267       -2.2869133560
 H         -3.4452218858        1.0829070826       -2.7429961343
 H         -7.0220827256        1.8202459642        1.2840659610
 H         -5.8189976036        0.9781348197        2.2691783270
 H         -6.4227730673        0.5538330133       -0.6848995247
 H         -6.6166615018       -0.5915183706        0.6555876553
 O         -4.2707742046       -1.2347463844        0.9544815854
 C         -3.0024729387       -1.7859483906        0.9598496266
 O         -2.8216553950       -2.6369805991        1.8531895365
 H          0.3443584802        0.2579360412       -0.9049216103
 C          0.7491879257        0.0158992859        0.0663152937
 C          0.3010256533       -1.1201774605        0.7253856746
 C          0.8146092209       -1.4042750127        1.9854647509
 C          1.7473022391       -0.5671207489        2.5731089042
 C          2.1893621070        0.5661772544        1.9149150034
 C          1.6805380410        0.8584069333        0.6556375115
 N          2.1336411507        2.0019159137       -0.0263399229
 S          3.7915417821        2.2211822874       -0.1078694736
 O          4.2544440862        2.8513681380        1.1039929584
 O          4.0248940483        2.9596881696       -1.3291019374
 C          4.4686932640        0.5738921479       -0.2249902385
 C          4.0925862205       -0.2101244931       -1.2978025846
 C          4.5724646653       -1.5067158214       -1.3801182636
 C          5.4144984670       -1.9959794233       -0.3931954573
 C          5.7874518052       -1.1944011514        0.6741482623
 C          5.3090280913        0.1031350034        0.7629521144
 H          5.5692450932        0.7588725606        1.5777866101
 H          6.4440287341       -1.5764714471        1.4391003882
 H          5.7813640704       -3.0081098112       -0.4582882787
 H          4.2843556540       -2.1314127159       -2.2102436223
 H          3.4381850372        0.1990890081       -2.0508670526
 H          1.7015409245        2.1269771345       -0.9303680156
 H          2.9114142283        1.2331396570        2.3578428107
 H          2.1343026173       -0.7992100605        3.5534695657
 H          0.4654411461       -2.2821209509        2.5095746034
 C         -0.7112367685       -2.0371838097        0.0809726610
 H         -0.8490113441       -2.8996645652        0.7460531726
 C         -0.2174790594       -2.5428655623       -1.2615047558
 C          0.8716300199       -3.5707728594       -1.2913501849
 C         -0.5275698342       -3.9491855586       -1.6727222132
 H         -0.7468476266       -4.1452675920       -2.7116753219
 H         -1.0988102230       -4.5567589586       -0.9857422782
 H          1.6156018004       -3.5089052044       -2.0702201874
 H          1.2524218577       -3.9227317971       -0.3447637174
 H         -0.2221485934       -1.7886443832       -2.0367317738
 O         -1.6210593362        0.0164327408       -1.8732594647
