  62
        -98.93890623
 C         -2.4631608022       -0.9557235984        0.3625404626
 C         -2.8304170062        0.2071850196        1.0915068016
 C         -4.2140863891        0.6668400769        0.9384689491
 C         -5.0619038518       -0.0277630391        0.1586715492
 C         -6.5158083776        0.2836509367       -0.0716440849
 C         -6.7665273077        1.3339400996       -1.1621941201
 C         -6.4017450584        2.7684344311       -0.7785105288
 H         -6.8280968433        3.4226802878       -1.5414847639
 H         -6.8764816006        3.0216612295        0.1698861659
 C         -4.8925138787        3.0345257257       -0.6882129506
 H         -4.6547777055        3.9661553015       -1.2065834825
 H         -4.3494698154        2.2367632383       -1.2004105576
 C         -4.3541269996        3.1605566890        0.7371364184
 H         -4.7907358344        4.0387741508        1.2180533572
 H         -3.2723395565        3.3087341004        0.6829742523
 C         -4.6194932650        1.9367393907        1.6236908105
 H         -4.0164033692        2.0319914508        2.5300541340
 H         -5.6716046122        1.8971612001        1.9055199568
 H         -7.8315477132        1.3044973547       -1.4033733115
 H         -6.2140026522        1.0449257892       -2.0590699959
 H         -6.9712076187        0.6120625213        0.8630711703
 H         -6.9877574129       -0.6518158310       -0.3794612379
 O         -4.6799531085       -1.1438740395       -0.5121559170
 C         -3.3787270324       -1.6239494951       -0.4514178532
 O         -3.1976339503       -2.6349324606       -1.1587822221
 O         -2.0359711777        0.8268541269        1.8497583120
 C         -1.0333531651       -1.4343344036        0.5335630636
 C         -0.1188261570       -0.9965260496       -0.5860461658
 C         -0.3906492025       -1.2957211190       -1.9169037307
 C          0.4996362145       -0.9309115046       -2.9103893993
 C          1.6855259549       -0.2899654360       -2.5974432963
 C          1.9653944796        0.0142049027       -1.2706549456
 C          1.0560853733       -0.3262590001       -0.2790563344
 H          1.2820159589       -0.0688205440        0.7456629580
 N          3.1553923792        0.6672202462       -0.9126665595
 S          3.8916983721        0.2098006967        0.5385352336
 O          3.8026242018       -1.2226510593        0.7064726069
 O          3.3501239800        1.0121031985        1.6068376204
 C          5.5796377652        0.6888777344        0.2205577948
 C          5.9599677526        1.9972961660        0.4519404978
 C          7.2656009989        2.3731353420        0.1783788757
 C          8.1633182672        1.4406473865       -0.3201283384
 C          7.7672538406        0.1308697394       -0.5459861160
 C          6.4629279589       -0.2517191793       -0.2753028310
 H          6.1131643881       -1.2605764835       -0.4250719869
 H          8.4682719264       -0.5925057068       -0.9300965084
 H          9.1791314327        1.7356956348       -0.5307052789
 H          7.5780441646        3.3895407945        0.3558592541
 H          5.2300885554        2.6835630149        0.8489599271
 H          3.8189571678        0.7252871625       -1.6730583202
 H          2.3867423503       -0.0240235408       -3.3738816311
 H          0.2754084488       -1.1654301799       -3.9401898429
 H         -1.3005498339       -1.8217649312       -2.1614533539
 H         -0.6762812772       -0.9457935359        1.4514042985
 C         -0.9079016227       -2.9366635436        0.7157671194
 C          0.3715073011       -3.4925772602        1.2630239136
 C         -0.8733722133       -3.5130209114        2.0974739232
 H         -1.3613972830       -4.4599759616        2.2731377668
 H         -0.9413604709       -2.8252042662        2.9280387833
 H          0.7363127760       -4.4265440668        0.8634637296
 H          1.1562057800       -2.7950438293        1.5198775241
 H         -1.4152429989       -3.5043939777       -0.0534416415
