  62
        -98.92959044
 C         -2.2697254852       -1.3398909384       -0.1484538724
 C         -2.2027912383       -0.0086472378       -0.6204199017
 C         -3.3273358507        0.8804481315       -0.2549991271
 C         -4.3540099501        0.3868553515        0.4587579764
 C         -5.5999481541        1.0864133045        0.9409350750
 C         -6.3023356151        2.0126053653       -0.0637895612
 C         -6.1735748758        3.4962931460        0.2848707543
 H         -7.0025815617        4.0372510816       -0.1767207888
 H         -6.2726294222        3.6088570725        1.3664279608
 C         -4.8766636318        4.1600017769       -0.1748097483
 H         -4.8472807001        5.1634469591        0.2562613768
 H         -4.8936742295        4.2736762673       -1.2609037504
 C         -3.5922090257        3.4234095384        0.2113941081
 H         -3.6640866903        3.0339150847        1.2262105395
 H         -2.7758940649        4.1490360807        0.2066752041
 C         -3.2140021718        2.2939084817       -0.7586967672
 H         -3.7918700002        2.3858392411       -1.6832052664
 H         -2.1642955227        2.3989092491       -1.0519319415
 H         -7.3634118269        1.7580949779       -0.0655677141
 H         -5.9239228939        1.8249004400       -1.0674104152
 H         -5.3562289435        1.6416603592        1.8499804554
 H         -6.2760202825        0.2821563857        1.2396437207
 O         -4.3819969043       -0.9092681417        0.8825012606
 C         -3.3553939403       -1.7892830831        0.6078763916
 O         -3.5264134119       -2.9339786548        1.0733709863
 O         -1.2608260816        0.4455690160       -1.3233485220
 C         -1.1836241952       -2.3728843246       -0.4087214197
 C         -0.0324169030       -2.1771609820        0.5499296810
 C          0.1196487048       -3.0440653950        1.6275923985
 C          1.1664729610       -2.8884660640        2.5175096762
 C          2.0906884347       -1.8758358310        2.3390609604
 C          1.9387818417       -0.9929446666        1.2747913031
 C          0.8779324722       -1.1410066087        0.3919802527
 H          0.7654017495       -0.4318679394       -0.4136245708
 N          2.8432490406        0.0632732600        1.0979583773
 S          3.2678156822        0.5424223540       -0.4644998467
 O          2.4174752282        1.6314757471       -0.8720061999
 O          3.3199132995       -0.6073921647       -1.3371250959
 C          4.9185572879        1.1555553957       -0.1693819964
 C          5.0888355013        2.4699762612        0.2220521017
 C          6.3698039590        2.9316448142        0.4809896490
 C          7.4531401347        2.0760791303        0.3466024845
 C          7.2671794110        0.7597508686       -0.0485328230
 C          5.9887891034        0.2918414666       -0.3086451285
 H          5.7966876277       -0.7198896088       -0.6279813366
 H          8.1114677325        0.0979703541       -0.1557407266
 H          8.4488775580        2.4383213925        0.5478900956
 H          6.5182284806        3.9553596254        0.7846414702
 H          4.2174524735        3.0988895555        0.3038329096
 H          3.6463766010        0.0066726676        1.7086515264
 H          2.9169318240       -1.7591818886        3.0239873144
 H          1.2707325001       -3.5690542251        3.3489219721
 H         -0.6026116130       -3.8356969194        1.7670856658
 H         -1.6458081562       -3.3421682861       -0.1747917930
 C         -0.7132719887       -2.4108131302       -1.8484132291
 C         -0.0710097756       -3.6623484988       -2.3634299609
 C         -1.4401425085       -3.2737999025       -2.8333316222
 H         -1.5587700129       -2.9130398484       -3.8439954024
 H         -2.2838659846       -3.8430134284       -2.4702058772
 H          0.7577914317       -3.5672685495       -3.0481758309
 H          0.0125613427       -4.4970493807       -1.6836235098
 H         -0.3276608357       -1.4657808515       -2.2076757662
