  62
        -98.94530662
 C          2.1318011580        0.9042365418        0.0741865033
 C          2.8570039596        0.2441568102        1.0938248782
 C          3.5633667186       -0.9795522191        0.6921847444
 C          3.4442706078       -1.4213015535       -0.5734343518
 C          4.1419132534       -2.6286644225       -1.1284042627
 C          5.4971951879       -2.2532802835       -1.7440701354
 C          6.3686579871       -1.3863681219       -0.8352503404
 H          7.3100161549       -1.2099333512       -1.3598876613
 H          5.8874838506       -0.4147387746       -0.7022222899
 C          6.6576629205       -2.0011662554        0.5413199392
 H          6.4601720184       -3.0734513289        0.5169878795
 H          7.7182322241       -1.8718223065        0.7667854850
 C          5.8772461698       -1.3685188366        1.6949758899
 H          6.3123918050       -1.7213558976        2.6337050333
 H          5.9972447922       -0.2826520901        1.6660828125
 C          4.3771594014       -1.6861511356        1.7399207747
 H          3.9922763884       -1.3376225283        2.7029793250
 H          4.2271781074       -2.7663252364        1.6816148246
 H          6.0290935263       -3.1733135398       -1.9930857725
 H          5.3151967568       -1.7040569843       -2.6706912825
 H          3.5079267041       -3.0650742657       -1.9023372161
 H          4.2814037658       -3.3589935050       -0.3335369015
 O          2.7006543789       -0.7851011157       -1.5145823717
 C          2.0335744811        0.3960863727       -1.2215817004
 O          1.4028047180        0.8812148704       -2.1790090737
 O          2.9040659828        0.6544115436        2.2856697086
 C          1.3844243268        2.1823935675        0.4111111868
 C         -0.0924192195        1.9848473035        0.1718664082
 C         -0.8788802917        2.8628136802       -0.5612182412
 C         -2.2227108708        2.5974232324       -0.7631203506
 C         -2.8114804027        1.4633859923       -0.2355389178
 C         -2.0355833275        0.5822704766        0.5067022314
 C         -0.6919297996        0.8518168778        0.7092413686
 H         -0.0873248416        0.1597088266        1.2836711248
 N         -2.6273620955       -0.5705135838        1.0579274744
 S         -3.4484376280       -1.5927179591        0.0050146832
 O         -3.4064250701       -2.8946391070        0.6362036182
 O         -2.9215469172       -1.5122015026       -1.3377394571
 C         -5.1208540607       -0.9830310383        0.0477597722
 C         -5.7535414991       -0.6246832411       -1.1263490775
 C         -7.0582971268       -0.1593638822       -1.0688563802
 C         -7.7031003021       -0.0623347617        0.1547112149
 C         -7.0539822581       -0.4285493389        1.3245840313
 C         -5.7503874829       -0.8955504088        1.2741381248
 H         -5.2108993858       -1.1935208797        2.1575630328
 H         -7.5586779105       -0.3514677540        2.2740886256
 H         -8.7176287692        0.3012551095        0.1967570047
 H         -7.5642433197        0.1254901941       -1.9773526191
 H         -5.2088406696       -0.7113530742       -2.0531494932
 H         -1.9935144816       -1.1067681884        1.6336677692
 H         -3.8553914825        1.2499299087       -0.3976427308
 H         -2.8198482024        3.2841092021       -1.3433929282
 H         -0.4379436453        3.7489273626       -0.9868946829
 H          1.5390793290        2.3356339796        1.4897030400
 C          1.9734386936        3.3585668107       -0.3379706269
 C          1.8739912531        4.7412671279        0.2316925418
 C          3.1930212940        4.0308395110        0.2152064209
 H          3.9540632325        4.3663702947       -0.4732708002
 H          3.5852483926        3.6549735282        1.1490403210
 H          1.7312004797        5.5689492812       -0.4463376544
 H          1.3723535993        4.8553051284        1.1805848958
 H          1.9122860086        3.2387741993       -1.4138693224
