  62
        -98.94185488
 C          0.8315515003        1.3411345791        0.4781024256
 C          1.2557329354        0.7042286861       -0.7098342533
 C          2.2057325821       -0.4118157503       -0.5485916366
 C          2.5204156997       -0.8247993876        0.6911975513
 C          3.5001874897       -1.8969405816        1.0847386673
 C          4.8856031997       -1.2890948889        1.3644342570
 C          5.7878555479       -1.1581110091        0.1379777338
 H          6.1122768235       -2.1523118485       -0.1762713178
 H          6.6782197872       -0.6061652341        0.4478210928
 C          5.1593551557       -0.4448432133       -1.0618988759
 H          5.9696973908       -0.0880874923       -1.7005907025
 H          4.6085086225        0.4329536943       -0.7189810535
 C          4.2350678212       -1.3515616619       -1.8884953167
 H          4.3769559636       -2.3857783807       -1.5765158806
 H          4.5273313074       -1.3026026374       -2.9393727406
 C          2.7447510569       -0.9894924939       -1.8282869723
 H          2.1495691729       -1.8686150951       -2.0908255903
 H          2.5235407244       -0.2315249151       -2.5862207274
 H          5.4005509479       -1.9122422918        2.0985817123
 H          4.7357436648       -0.3065336218        1.8195290461
 H          3.1233037624       -2.3391568450        2.0097582560
 H          3.5625201804       -2.6680916273        0.3227330057
 O          1.9962005510       -0.2511955883        1.8118209470
 C          1.1812744445        0.8628883480        1.7395090202
 O          0.8355555827        1.3252471115        2.8467441631
 H         -1.7217630519        0.6257311790        1.0289742685
 C         -2.0855735872        1.1864382481        0.1796267373
 C         -1.3401247687        2.2570819742       -0.3005244256
 C         -1.8328262523        2.9842705447       -1.3757060571
 C         -3.0373503678        2.6350179908       -1.9613089420
 C         -3.7750127165        1.5680149806       -1.4844743303
 C         -3.2969766624        0.8426554022       -0.3975744689
 N         -4.0491535290       -0.2136179471        0.1319020712
 S         -3.3700387268       -1.4768827020        0.9677608168
 O         -4.4269983035       -2.4660722941        1.0163527847
 O         -2.8686174291       -1.0355089883        2.2451378989
 C         -2.0454776237       -2.1241991819       -0.0353492913
 C         -2.2999809397       -2.4136130690       -1.3614971424
 C         -1.3137819718       -3.0262353926       -2.1162212333
 C         -0.1012777391       -3.3546033150       -1.5301866502
 C          0.1430700547       -3.0502104842       -0.2005470053
 C         -0.8350256989       -2.4226395042        0.5540725279
 H         -0.6806986837       -2.1621783991        1.5902705097
 H          1.0865270264       -3.3012825326        0.2559753206
 H          0.6549430215       -3.8585137507       -2.1117327622
 H         -1.4960483419       -3.2552244742       -3.1537598460
 H         -3.2612521452       -2.1707066123       -1.7836332762
 H         -4.8660723818       -0.4824673816       -0.3946480273
 H         -4.7165577264        1.3002121849       -1.9384537244
 H         -3.4064429372        3.2026226853       -2.8018267849
 H         -1.2730133344        3.8206493824       -1.7595380346
 C         -0.0442583108        2.5782001447        0.4022949420
 H         -0.2851140896        2.8422747257        1.4429067236
 C          0.7260525407        3.7212507651       -0.2260533543
 C          0.3813346985        5.1389454314        0.1142350066
 C          1.6485072997        4.5302848337        0.6333491761
 H          2.5888268398        4.8579790341        0.2159470487
 H          1.7032252814        4.2724916693        1.6814755506
 H         -0.4245739360        5.3027255028        0.8136458417
 H          0.4545839872        5.8887725818       -0.6588632626
 H          1.0516854309        3.4997284842       -1.2357726480
 O          0.8837041639        1.0636413277       -1.8569828846
