  62
        -98.93976769
 C          2.0997706139        1.3879732318        0.6136333021
 C          1.9921895830        0.1363971064        1.2739347885
 C          3.0265056588       -0.8573641465        0.9664592791
 C          4.0102402434       -0.5323197211        0.1083225887
 C          5.0924705396       -1.4661291080       -0.3488098696
 C          4.6787082190       -2.2063930864       -1.6287933167
 C          3.2854888871       -2.8323647360       -1.5591063289
 H          2.5401046193       -2.0365367072       -1.4894900338
 H          3.1159236573       -3.3499578325       -2.5057675905
 C          3.0878073422       -3.8147716270       -0.3962105478
 H          2.5785277966       -4.7040973414       -0.7731451700
 H          4.0577576006       -4.1359174926       -0.0146478600
 C          2.2436263023       -3.2700269955        0.7576225118
 H          1.9828224605       -4.1058635186        1.4120494172
 H          1.3130056880       -2.8510567555        0.3667355810
 C          2.9164121612       -2.2015776537        1.6282387735
 H          2.2902777344       -2.0498309791        2.5121429152
 H          3.8966203246       -2.5529956428        1.9565888356
 H          5.4191525498       -2.9819348094       -1.8334867735
 H          4.6932220264       -1.4959032399       -2.4586068285
 H          5.3085038818       -2.1799447750        0.4437094730
 H          5.9906355471       -0.8806581201       -0.5525285698
 O          4.0960538337        0.6821620741       -0.4877361790
 C          3.1308362208        1.6643099565       -0.2847580879
 O          3.3267290671        2.6979418482       -0.9485178822
 O          1.0665809894       -0.1313256029        2.0865729232
 C          0.9860633657        2.3807116678        0.8974697556
 C         -0.1849400613        2.0556400177        0.0052543495
 C         -0.0287710201        1.9676417470       -1.3749454724
 C         -1.0999058844        1.6264630199       -2.1800077696
 C         -2.3405961609        1.3551809206       -1.6284374868
 C         -2.5023045758        1.4231604202       -0.2511637341
 C         -1.4270420196        1.7787905914        0.5547086962
 H         -1.5539397552        1.8202550384        1.6277192611
 N         -3.7553141399        1.1469662167        0.3231462850
 S         -4.5759711357       -0.2443110969       -0.1158266690
 O         -5.0204295872       -0.1245214375       -1.4812201476
 O         -5.6090137928       -0.3946943725        0.8827216637
 C         -3.3880512315       -1.5656834595        0.0287368892
 C         -2.6857410071       -1.9822555738       -1.0838732947
 C         -1.7441265562       -2.9889783675       -0.9412752701
 C         -1.5228541961       -3.5583054478        0.3030348630
 C         -2.2335107685       -3.1254460323        1.4118879166
 C         -3.1727959266       -2.1168260912        1.2764179503
 H         -3.7543083308       -1.7615884211        2.1120334164
 H         -2.0553410835       -3.5675848165        2.3788313436
 H         -0.7937626280       -4.3460146354        0.4098415140
 H         -1.1864125832       -3.3259457815       -1.8005260516
 H         -2.8934464673       -1.5248929373       -2.0370911563
 H         -3.7710683360        1.2548599731        1.3270776300
 H         -3.1833421241        1.0874896256       -2.2447454958
 H         -0.9685843886        1.5687005897       -3.2501368394
 H          0.9422331094        2.1668710179       -1.8047387411
 H          0.6765159847        2.1683192279        1.9334239553
 C          1.4104884919        3.8391829480        0.8447874336
 C          0.9483770230        4.8019582496       -0.2033357583
 C          0.4199010998        4.9110209824        1.1935095057
 H          0.7426013663        5.7360442650        1.8101740200
 H         -0.6020393473        4.6053156606        1.3627488596
 H          1.6583225002        5.5361834247       -0.5520897656
 H          0.2813821227        4.4449748300       -0.9720760175
 H          2.4236033651        3.9794837585        1.2059566810
