  62
        -98.93880653
 C         -2.7878335384       -0.2013734876       -0.3585039848
 C         -2.9122395463        0.7288319073        0.7061144161
 C         -2.5689727401        2.1202612618        0.4026668270
 C         -2.1689572521        2.4488797606       -0.8386192848
 C         -1.7487866915        3.8161849077       -1.3031021492
 C         -0.2828332799        4.1398455679       -0.9812506771
 C          0.0025163086        4.4607579750        0.4866663031
 H          0.9962952935        4.9108420554        0.5285559991
 H         -0.7103112853        5.2053176379        0.8437416384
 C         -0.0177678213        3.2373053728        1.4138940154
 H          0.8458986224        3.2707468902        2.0830940730
 H          0.0926620129        2.3250557758        0.8209930316
 C         -1.2629054496        3.1220470699        2.2940659794
 H         -1.2824545609        3.9490004802        3.0081862389
 H         -1.1900210654        2.1887258804        2.8588680754
 C         -2.5907622771        3.1119057587        1.5260670454
 H         -3.3820823094        2.8119209053        2.2177709380
 H         -2.8141197358        4.1092078202        1.1476011646
 H          0.0022610801        5.0048464440       -1.5849157065
 H          0.3376655316        3.2937208152       -1.2882369132
 H         -2.3982882840        4.5737560304       -0.8636057322
 H         -1.8769593202        3.8309976165       -2.3875357458
 O         -2.1085486276        1.5415100920       -1.8457043584
 C         -2.3614129474        0.1921689039       -1.6271917574
 O         -2.1830923851       -0.5142241504       -2.6385379775
 O         -3.2941931443        0.4017419846        1.8621516508
 C         -2.9993525907       -1.6622951960        0.0053020896
 C         -1.6993240912       -2.1802486078        0.5694637933
 C         -1.6300235779       -2.8259000183        1.7972618317
 C         -0.4064135990       -3.1814046159        2.3407355982
 C          0.7723657334       -2.8836821933        1.6797005477
 C          0.7089487059       -2.2567665284        0.4445726791
 C         -0.5150189546       -1.9258176977       -0.1090252954
 H         -0.5447890536       -1.4212804739       -1.0651377387
 N          1.9178503364       -1.8627970504       -0.2044788029
 S          2.2600821864       -0.2450445927        0.1880752963
 O          2.0607879043       -0.0801209084        1.6051186686
 O          1.5214945434        0.6466035627       -0.6821551406
 C          3.9997139809       -0.1686172131       -0.1926396262
 C          4.8880885739       -0.7208809303        0.7097884710
 C          6.2398040251       -0.7186374019        0.4063043863
 C          6.6779643454       -0.1688268551       -0.7895101650
 C          5.7743323280        0.3829228907       -1.6845854571
 C          4.4202202703        0.3821664981       -1.3869856028
 H          3.6825568697        0.8044237378       -2.0507645224
 H          6.1171714169        0.8116207095       -2.6125600672
 H          7.7304377460       -0.1692491420       -1.0251991783
 H          6.9457243655       -1.1453472504        1.1004089261
 H          4.4996486283       -1.1291988759        1.6279096741
 H          1.8111581419       -1.8943462763       -1.2115748022
 H          1.7332088160       -3.1118203609        2.1104062535
 H         -0.3709036442       -3.6721431973        3.3013773667
 H         -2.5418599442       -3.0179955633        2.3437137775
 H         -3.7352285669       -1.6529399447        0.8249969020
 C         -3.5654789549       -2.5194839275       -1.1143557573
 C         -2.7707816432       -3.5727604872       -1.8209679244
 C         -3.8519292049       -3.9709046492       -0.8644826407
 H         -4.7637674105       -4.3930555031       -1.2580474113
 H         -3.5480004238       -4.3786896578        0.0877878488
 H         -2.9363339283       -3.6956072646       -2.8802201614
 H         -1.7449827425       -3.7238306434       -1.5223944292
 H         -4.2835475353       -1.9755627910       -1.7184052024
