  62
        -98.94008251
 C         -1.9687282690       -0.0140643570        0.4268768214
 C         -2.8253249133       -0.5368938630       -0.5732320785
 C         -4.1370058045        0.1217446275       -0.6974687841
 C         -4.4244777264        1.1857745968        0.0724378294
 C         -5.7335850139        1.9193804069        0.0733815406
 C         -6.6990007472        1.3322091747        1.1124736447
 C         -6.8319007855       -0.1890484253        1.0412719591
 H         -5.8779285332       -0.6430859947        1.3189382851
 H         -7.5616361501       -0.4873386611        1.7971728443
 C         -7.2675354696       -0.7245261638       -0.3298357611
 H         -7.7108414387        0.0800083292       -0.9176911847
 H         -8.0413997242       -1.4805003813       -0.1804442790
 C         -6.1489781159       -1.3853553057       -1.1377041975
 H         -6.6052079043       -1.9151686518       -1.9781314870
 H         -5.6416888879       -2.1297004823       -0.5188043075
 C         -5.0915805779       -0.4362677783       -1.7157211129
 H         -4.4788470837       -1.0096021443       -2.4174930228
 H         -5.5818263841        0.3687965021       -2.2667577719
 H         -7.6788776472        1.7921427900        0.9718854262
 H         -6.3387123108        1.5984010198        2.1089747850
 H         -6.1754971908        1.8662079203       -0.9197342791
 H         -5.5408246033        2.9650638936        0.3194493941
 O         -3.5554346573        1.6932844659        0.9841203758
 C         -2.3218895607        1.1024963535        1.1900670700
 O         -1.6321770144        1.6517496007        2.0735424154
 O         -2.5328284016       -1.4988591349       -1.3276308538
 C         -0.5920167812       -0.5868760048        0.7266150294
 C          0.4321811015        0.0653059820       -0.1646616796
 C          0.3441274518       -0.0286340950       -1.5506713713
 C          1.2919868737        0.5754293456       -2.3561225227
 C          2.3433390345        1.2844422648       -1.7997880289
 C          2.4344287225        1.3895421509       -0.4191249361
 C          1.4846544433        0.7783481170        0.3890771874
 H          1.5543350603        0.8741507850        1.4643591796
 N          3.5206088913        2.0912392184        0.1491532480
 S          5.0259628115        1.4039522078       -0.1322657699
 O          5.9092689375        1.9773369789        0.8571943833
 O          5.3884130013        1.6112007216       -1.5105550995
 C          4.7665128175       -0.3314287425        0.1849280366
 C          4.4117425453       -1.1661257255       -0.8558989862
 C          4.1062349645       -2.4887433143       -0.5776407964
 C          4.1584210091       -2.9508324710        0.7282262937
 C          4.5231930287       -2.1012933966        1.7617411894
 C          4.8236629720       -0.7761978155        1.4909348450
 H          5.1124841487       -0.0835939516        2.2655369323
 H          4.5652477143       -2.4647385339        2.7761340708
 H          3.9097674426       -3.9781425328        0.9415251287
 H          3.8215956813       -3.1526961035       -1.3777897921
 H          4.3845541693       -0.7693818682       -1.8573617617
 H          3.4067836574        2.2585654252        1.1392745004
 H          3.0984306581        1.7508705167       -2.4119315356
 H          1.2126884666        0.4942295175       -3.4297047910
 H         -0.4750942042       -0.5828618475       -1.9832567172
 H         -0.3762184573       -0.2750524434        1.7602567135
 C         -0.5479893998       -2.1095807781        0.6876322000
 C          0.3757659203       -2.8889436439       -0.1965014115
 C          0.6323909020       -2.8247400720        1.2764492025
 H          0.4588899005       -3.7046295844        1.8768863521
 H          1.4609026421       -2.2168101010        1.6091543671
 H         -0.0004014858       -3.8074804167       -0.6201500641
 H          1.0416654765       -2.3467392773       -0.8490269734
 H         -1.5209442368       -2.5524848785        0.8684044681
