  62
        -98.94576007
 C         -2.4989841570       -0.0400272946       -0.5577545208
 C         -2.4559676685       -0.8209371965        0.6221026708
 C         -1.9957138020       -2.2045270419        0.4562683332
 C         -1.5842320634       -2.6318469364       -0.7505722596
 C         -1.0614021830       -4.0054236020       -1.0733328939
 C          0.4196271537       -4.1987126959       -0.7188498975
 C          0.7166700646       -4.3685301274        0.7720319058
 H          0.0481698457       -5.1204793951        1.1934224816
 H          1.7347938646       -4.7550562236        0.8510189045
 C          0.6217333896       -3.0718466661        1.5876334573
 H          0.6847620944       -2.2120382001        0.9170487998
 H          1.4759532859       -3.0103840316        2.2668476828
 C         -0.6373341174       -2.9435060626        2.4448504823
 H         -0.6275343475       -1.9576971361        2.9167144167
 H         -0.6225272806       -3.6987053658        3.2349624473
 C         -1.9536922559       -3.0819826902        1.6718322583
 H         -2.1148494931       -4.1222722840        1.3887425678
 H         -2.7676412733       -2.7675320756        2.3304291206
 H          0.7657602043       -5.0931852032       -1.2426693265
 H          0.9824665788       -3.3442398572       -1.1040234392
 H         -1.6629303153       -4.7587061258       -0.5629390797
 H         -1.1796140917       -4.1369029508       -2.1511545453
 O         -1.6166045414       -1.8422967401       -1.8579973738
 C         -2.0608371738       -0.5336844112       -1.7863113424
 O         -2.0357393328        0.0778945396       -2.8765532559
 O         -2.7950899038       -0.3957138906        1.7578439365
 C         -2.8910460275        1.4284159957       -0.4911571253
 C         -1.8347148256        2.1274533577        0.3310508877
 C         -2.0878644552        2.8386321489        1.4953011535
 C         -1.0376279078        3.3516377986        2.2389096221
 C          0.2740925747        3.1487283962        1.8528839065
 C          0.5351949209        2.4575766465        0.6734861849
 C         -0.5175527228        1.9833578002       -0.0887226368
 H         -0.3070093790        1.4519370258       -1.0069750953
 N          1.8505988467        2.2362644190        0.2338982104
 S          2.1631433299        0.8310740478       -0.6529614290
 O          1.9793312523        1.1293246836       -2.0525268467
 O          1.4143735640       -0.2843362376       -0.1241010041
 C          3.9014783221        0.6143787353       -0.3177262140
 C          4.3004089877       -0.3357860759        0.6026767947
 C          5.6521942088       -0.4799857208        0.8742252325
 C          6.5759975638        0.3263426634        0.2268575691
 C          6.1603045895        1.2755725222       -0.6953631419
 C          4.8107280937        1.4236982913       -0.9729204713
 H          4.4407205888        2.1382177272       -1.6895026572
 H          6.8815792510        1.8984353083       -1.1991661211
 H          7.6270321984        0.2121175603        0.4399666782
 H          5.9777071261       -1.2197052793        1.5875291262
 H          3.5449486852       -0.9433231064        1.0750707255
 H          2.5439460142        2.3998823133        0.9507204113
 H          1.0903405674        3.5192570486        2.4540400453
 H         -1.2451115151        3.8964742579        3.1474605995
 H         -3.1025740576        2.9732303998        1.8316944264
 H         -2.8311017296        1.8064656556       -1.5223179898
 C         -4.3018677441        1.6105867702        0.0219937716
 C         -5.0584047351        2.8614618049       -0.3071550889
 C         -5.4399280519        1.5633615217       -0.9509749456
 H         -6.3582670335        1.0846414941       -0.6461925690
 H         -5.1958500601        1.4156571403       -1.9932470614
 H         -5.7195446278        3.2761019575        0.4384689347
 H         -4.5590258039        3.6002861884       -0.9156255115
 H         -4.4559937468        1.1565803794        0.9933290158
