  62
        -98.93292032
 C         -2.6467044307       -1.2542638990        0.2834924619
 C         -2.5277046045       -0.1736533915       -0.6240768750
 C         -3.7077424907        0.7035878113       -0.7494640136
 C         -4.8073820393        0.4508168013       -0.0212448782
 C         -6.1235428650        1.1870220943       -0.0217925622
 C         -6.0739973429        2.7217728521       -0.0216925707
 C         -4.8730435500        3.3348590941        0.7134671465
 H         -5.2347152425        4.0916143586        1.4122240576
 H         -4.3609072465        2.5697109606        1.2995191058
 C         -3.8740713700        4.0082215430       -0.2309840080
 H         -4.4301005613        4.5802665564       -0.9770592676
 H         -3.2724804104        4.7173095032        0.3426780888
 C         -2.9042314865        3.0664890309       -0.9440256085
 H         -2.1835578266        2.6620277680       -0.2278378791
 H         -2.3369454936        3.6543854024       -1.6695277619
 C         -3.5520175747        1.8777074678       -1.6724113637
 H         -4.4982954326        2.1607848703       -2.1270592439
 H         -2.8674850285        1.5549169274       -2.4615015747
 H         -6.0842135454        3.0865298271       -1.0479316940
 H         -6.9993659151        3.0666145596        0.4427747959
 H         -6.7038750104        0.8477209663       -0.8847311862
 H         -6.6438834572        0.8374528229        0.8731593448
 O         -4.8749833992       -0.5968224544        0.8489930496
 C         -3.8048954941       -1.4528095551        1.0380463636
 O         -4.0033497707       -2.3362064503        1.8963657532
 H          0.7577429068       -2.1049699168       -1.0426707543
 C          0.8385004230       -1.4988726377       -0.1536529439
 C         -0.2191980468       -1.4404998124        0.7387275865
 C         -0.0969875337       -0.6281686530        1.8628441566
 C          1.0497231519        0.1107570726        2.0802783094
 C          2.1000050478        0.0579242910        1.1805131964
 C          1.9897707256       -0.7499167658        0.0576898700
 N          3.0412468183       -0.7903544541       -0.8705105848
 S          4.6154082502       -0.9567541335       -0.3269116193
 O          5.3421788057       -1.5224022250       -1.4428737112
 O          4.6725749720       -1.6949802547        0.9138523180
 C          5.1661801558        0.7168107318       -0.0677935200
 C          5.0177434620        1.6201954611       -1.1018516206
 C          5.4547400527        2.9225794932       -0.9204273676
 C          6.0331726632        3.2967559976        0.2834232699
 C          6.1785990345        2.3770751298        1.3105687661
 C          5.7421172957        1.0728965999        1.1359172327
 H          5.8290265432        0.3260027907        1.9090573712
 H          6.6288313670        2.6698462630        2.2455350687
 H          6.3726964779        4.3111713374        0.4215426586
 H          5.3423541369        3.6407716389       -1.7167157162
 H          4.5646083538        1.2911662610       -2.0221411527
 H          2.8598221344       -1.3668263521       -1.6785913546
 H          2.9959695954        0.6351995668        1.3406572829
 H          1.1269049074        0.7381032160        2.9555481070
 H         -0.9213869772       -0.5799143255        2.5621524125
 C         -1.4990931939       -2.2154947608        0.5448071459
 H         -1.7470721045       -2.6957736722        1.5058546511
 C         -1.3761676316       -3.3380291215       -0.4746379067
 C         -2.5974290331       -3.9231565775       -1.1171874266
 C         -1.6226405801       -3.1366530369       -1.9384678477
 H         -0.9985725562       -3.6718564888       -2.6399073657
 H         -1.9034114024       -2.1496371246       -2.2694428594
 H         -2.6436082960       -4.9931699220       -1.2536008660
 H         -3.5498918139       -3.4720829852       -0.8792097331
 H         -0.5928238899       -4.0406746693       -0.2044239578
 O         -1.5019787268        0.0580651493       -1.3127085264
