  62
        -98.94058578
 C          2.3434384825       -0.1424941465       -0.2796619495
 C          3.5073617846       -0.4847492455       -1.0087497471
 C          4.7282467421        0.2397807406       -0.6398578664
 C          4.6803934480        1.1809469779        0.3207049525
 C          5.8357005198        2.0213957323        0.7933114858
 C          6.7148128205        1.3367060555        1.8489592680
 C          7.6049108184        0.2096700548        1.3235430037
 H          8.1769888375        0.5688791824        0.4675772981
 H          8.3180422464       -0.0301939696        2.1147007680
 C          6.8471543127       -1.0688112579        0.9390703175
 H          7.3667927327       -1.9377647369        1.3491303396
 H          5.8511027483       -1.0514451085        1.3876034641
 C          6.7068142113       -1.2941085699       -0.5664373041
 H          6.1227080285       -2.2045077685       -0.7233318480
 H          7.6939883521       -1.4470489526       -1.0080754678
 C          6.0094159646       -0.1498101394       -1.3135804108
 H          5.7630293463       -0.4969864830       -2.3200001401
 H          6.6752771546        0.7091404860       -1.3923992890
 H          6.0707482261        0.9525263067        2.6433172158
 H          7.3577202520        2.1048887799        2.2847693108
 H          6.4495466810        2.3135246663       -0.0591005632
 H          5.4034619584        2.9211503372        1.2362407764
 O          3.5341202030        1.4995770277        0.9797440629
 C          2.3440299500        0.8379981660        0.7121538197
 O          1.3816561475        1.2134653493        1.4083385229
 O          3.5225300987       -1.3471726870       -1.9278743958
 C          1.0476833194       -0.8699837696       -0.5849563935
 C         -0.0272483280        0.1078783283       -0.9895619932
 C          0.2530855031        1.0420020473       -1.9845282566
 C         -0.7053044132        1.9480328054       -2.3934254390
 C         -1.9700645004        1.9334887954       -1.8313553570
 C         -2.2605347378        1.0060712945       -0.8386755627
 C         -1.2920338543        0.1010863573       -0.4248076816
 H         -1.5474606150       -0.6060049440        0.3462403557
 N         -3.5259632016        0.9820802660       -0.2311913609
 S         -4.1662874849       -0.5016390328        0.2541467153
 O         -3.6411553405       -0.8420408479        1.5523106339
 O         -3.9824639776       -1.4858673477       -0.7887152673
 C         -5.8912171771       -0.0710103004        0.3985714185
 C         -6.7526426068       -0.3588942785       -0.6432841402
 C         -8.0852398821        0.0056717115       -0.5315991121
 C         -8.5306615614        0.6511587574        0.6121113200
 C         -7.6542533923        0.9332209732        1.6497016041
 C         -6.3208871643        0.5704764544        1.5450911064
 H         -5.6054143512        0.7604324292        2.3282742634
 H         -8.0047900317        1.4325953555        2.5385052624
 H         -9.5680206004        0.9338833646        0.6969326049
 H         -8.7695345489       -0.2144854968       -1.3349558011
 H         -6.3630315652       -0.8697023851       -1.5091281756
 H         -4.2092609486        1.5444217262       -0.7195030629
 H         -2.7211680173        2.6391711285       -2.1523884497
 H         -0.4700602627        2.6678019788       -3.1631605765
 H          1.2386959750        1.0476527556       -2.4304951859
 H          1.2684919426       -1.5090986558       -1.4538393203
 C          0.6532558764       -1.7556037208        0.5779694908
 C         -0.1824175588       -2.9775287353        0.3454944291
 C          1.2662240981       -3.1169008557        0.7026560513
 H          1.5231644173       -3.4790405064        1.6867985250
 H          1.9559601795       -3.4220869533       -0.0707554523
 H         -0.9284199550       -3.2373662872        1.0821259451
 H         -0.4825531219       -3.1912864287       -0.6695395417
 H          0.4893951860       -1.1947069110        1.4922885216
