  62
        -98.93989057
 C         -2.7084174411       -0.6949749105        0.2305534977
 C         -2.7775271500        0.3725089283        1.1572691914
 C         -3.2503887006        1.6544227240        0.6241306922
 C         -3.5948513999        1.7503700276       -0.6732279402
 C         -4.1118814504        2.9842697064       -1.3618956978
 C         -3.0087940437        3.9373712847       -1.8424435940
 C         -2.2942695129        4.7154572310       -0.7367209538
 H         -1.7052502589        5.4952190243       -1.2234136226
 H         -3.0338172387        5.2111361128       -0.1071703413
 C         -1.3606206915        3.8639640699        0.1351467529
 H         -1.1460644180        2.9218371864       -0.3753810891
 H         -0.4080334288        4.3830032620        0.2629832702
 C         -1.9022659459        3.5598532298        1.5322837004
 H         -1.9984026432        4.4889924614        2.0981631503
 H         -1.1797012690        2.9239923884        2.0506485676
 C         -3.2574501581        2.8399153883        1.5418093534
 H         -3.4454289079        2.4756485506        2.5547820076
 H         -4.0531774658        3.5310360508        1.2654032866
 H         -2.2774424074        3.3630923953       -2.4159855887
 H         -3.4729263030        4.6563284556       -2.5213785591
 H         -4.6735548382        2.6408717111       -2.2332037044
 H         -4.7923647934        3.5176614710       -0.6977243688
 O         -3.5225106276        0.6978253144       -1.5303647025
 C         -3.0503685050       -0.5388407867       -1.1130898798
 O         -2.9927042620       -1.3945857455       -2.0154778242
 O         -2.4520060130        0.2609129153        2.3707255005
 C         -2.1877222126       -2.0404628348        0.7032524158
 C         -0.8801365414       -2.3456010497        0.0124877157
 C         -0.6226934291       -3.5312968194       -0.6608739867
 C          0.6007734102       -3.7331004786       -1.2776457712
 C          1.5882732475       -2.7670367065       -1.2363699256
 C          1.3466879476       -1.5810497547       -0.5533844044
 C          0.1236793387       -1.3853187001        0.0696991710
 H         -0.0655780629       -0.4632309318        0.6061929973
 N          2.3336020588       -0.5752693972       -0.5156308158
 S          3.9125319002       -1.0539721545       -0.1474259650
 O          4.4935163803       -1.6582687355       -1.3194659651
 O          3.9201331382       -1.8652650604        1.0501100991
 C          4.6797341217        0.5234216073        0.1611960142
 C          4.8213939706        0.9671354143        1.4621290784
 C          5.4012699158        2.2057219943        1.6880293675
 C          5.8232188109        2.9761429947        0.6149514699
 C          5.6731748014        2.5172170978       -0.6854325803
 C          5.0959614523        1.2791842462       -0.9183252761
 H          4.9675013116        0.8775886986       -1.9098536039
 H          6.0043928105        3.1186207643       -1.5165625590
 H          6.2745413139        3.9392541183        0.7937993612
 H          5.5217090404        2.5637668440        2.6978261794
 H          4.4866838406        0.3311978620        2.2661951611
 H          2.0578049999        0.1926333829        0.0821768187
 H          2.5427598744       -2.9169609809       -1.7140380163
 H          0.7870400779       -4.6578312524       -1.8029773615
 H         -1.3797301080       -4.2963275929       -0.7100435961
 H         -1.9797013242       -1.9109169086        1.7761442234
 C         -3.2368555720       -3.1182233730        0.5391496194
 C         -3.2168566474       -4.3267108829        1.4252599359
 C         -4.2774470884       -3.2836071366        1.6044726642
 H         -5.2883104747       -3.5167611551        1.3055586344
 H         -4.2160411957       -2.6326217296        2.4644411063
 H         -3.5017566158       -5.2794064468        1.0050796003
 H         -2.4354785532       -4.3886525034        2.1676726155
 H         -3.5522137129       -3.2413606370       -0.4905290316
