  62
        -98.94384215
 C         -1.3073187573       -1.4048790216        0.6435584640
 C         -2.0571827769       -0.9761201542       -0.4801041235
 C         -3.0341323596        0.0948010820       -0.2292197147
 C         -3.1568729363        0.6078448750        1.0071973285
 C         -4.0917096218        1.7170095808        1.3914548348
 C         -3.4100560380        3.0882174279        1.2935584459
 C         -2.6797924651        3.3315128598       -0.0278817248
 H         -1.8068156498        2.6763533165       -0.0906871907
 H         -2.2947809675        4.3539028954        0.0006860712
 C         -3.5487779446        3.1514903302       -1.2803747370
 H         -3.3356161676        3.9722993001       -1.9686168887
 H         -4.6043783486        3.2178367002       -1.0124037252
 C         -3.2983632773        1.8528687169       -2.0498300174
 H         -2.2232977765        1.7286032804       -2.2078959773
 H         -3.7668810582        1.9452199048       -3.0336516853
 C         -3.8431257493        0.5740027762       -1.4006542421
 H         -3.7942750258       -0.2245175223       -2.1468822616
 H         -4.8882585917        0.7193316155       -1.1191320516
 H         -2.6811500346        3.1738284358        2.1029692291
 H         -4.1695671972        3.8596554624        1.4369981498
 H         -4.4099765263        1.5545363665        2.4230662555
 H         -4.9656182972        1.6877251064        0.7434660843
 O         -2.4050660514        0.1885628246        2.0566932991
 C         -1.4386616893       -0.7907954438        1.8906323098
 O         -0.7670916725       -1.0230744469        2.9168367605
 O         -1.9284421061       -1.4537939741       -1.6368067194
 C         -0.2083846915       -2.4464083584        0.5174964236
 C          0.6865307010       -2.1076759546       -0.6517082329
 C          1.1916687022       -3.0387462658       -1.5493074565
 C          2.0281901237       -2.6330939598       -2.5759929081
 C          2.3851570587       -1.3056826506       -2.7269920728
 C          1.8794362715       -0.3651300546       -1.8356927783
 C          1.0504673099       -0.7769991787       -0.8075449878
 H          0.6388194405       -0.0387926985       -0.1379515641
 N          2.1852287115        0.9957686994       -1.9615558826
 S          2.1303309783        2.0255001268       -0.6531739006
 O          0.7693178246        2.2507399385       -0.2354718449
 O          2.8557533627        3.1960782677       -1.0991855613
 C          3.0613740872        1.2042715107        0.6283807487
 C          2.4414897831        0.7580882649        1.7770861191
 C          3.1943643542        0.0914232026        2.7312261163
 C          4.5491843261       -0.1130554916        2.5234968254
 C          5.1616533201        0.3513172665        1.3688627659
 C          4.4125615533        1.0133871049        0.4106946548
 H          4.8547510193        1.3979485201       -0.4938350296
 H          6.2169038068        0.1958606600        1.2127048501
 H          5.1293974098       -0.6350648786        3.2678336631
 H          2.7076575810       -0.2690908997        3.6237550683
 H          1.3842451258        0.9259579812        1.9163917654
 H          2.9045211193        1.2311598120       -2.6273653431
 H          3.0309663845       -0.9944249469       -3.5333898928
 H          2.4083998670       -3.3651254905       -3.2723118623
 H          0.9173502717       -4.0770413172       -1.4614278396
 H          0.3966103493       -2.3223393313        1.4322091402
 C         -0.6933491760       -3.8894849432        0.5167317808
 C         -2.0639221145       -4.2527024828        1.0033895386
 C         -1.7259491695       -4.3837266225       -0.4497957266
 H         -1.6109076023       -5.3762806565       -0.8604965724
 H         -2.1393935912       -3.6659188501       -1.1399698139
 H         -2.1764147124       -5.1506428088        1.5927107204
 H         -2.7192845816       -3.4477665764        1.3043752225
 H          0.0993289629       -4.5842325542        0.7764924954
