  62
        -98.93537671
 C          1.8866573964        1.6208683022        0.1277657918
 C          1.6363924380        0.4517070268       -0.6282298617
 C          2.7787352872       -0.4584826214       -0.8034932783
 C          3.9760081501       -0.1143375969       -0.2946618116
 C          5.2106673197       -0.9697808493       -0.3187809136
 C          5.1131412506       -2.0600867439        0.7678817920
 C          5.0323593474       -3.4876403637        0.2261826893
 H          6.0247061922       -3.7960544593       -0.1093486543
 H          4.7498764581       -4.1366260213        1.0577635045
 C          4.0572864316       -3.7105956996       -0.9340482870
 H          3.9154817829       -4.7894796374       -1.0262857936
 H          4.5144852529       -3.3771829751       -1.8668680943
 C          2.6824949366       -3.0435567474       -0.7957961225
 H          1.9316802226       -3.7325045665       -1.1884593375
 H          2.4438025839       -2.8709652395        0.2540310030
 C          2.5303511578       -1.7242271000       -1.5763204374
 H          3.1731069000       -1.7463470493       -2.4607337513
 H          1.4968028423       -1.6403052134       -1.9262921958
 H          5.9798888010       -1.9941774243        1.4272073446
 H          4.2348913833       -1.8522699475        1.3826120072
 H          6.0624847676       -0.3171561740       -0.1267126237
 H          5.3296553912       -1.4178781398       -1.3027187025
 O          4.1856547379        1.0421081124        0.3874646955
 C          3.1496966351        1.9282671264        0.6318997624
 O          3.4714140773        2.9316570070        1.2988464771
 O          0.5134526201        0.1757362561       -1.1261399787
 C          0.7522486085        2.5915232341        0.4063045769
 C         -0.4096517477        1.8334421907        0.9992757901
 C         -0.1781078044        1.0049540934        2.0951419869
 C         -1.1907715113        0.2368988054        2.6356561513
 C         -2.4611905285        0.2724852770        2.0868111896
 C         -2.7071776750        1.1094366741        1.0089091508
 C         -1.6937798809        1.8965097333        0.4806833537
 H         -1.9108833895        2.5256783393       -0.3689040691
 N         -4.0087589931        1.0927207500        0.4306215021
 S         -4.1063952104        0.0076068143       -0.8665930267
 O         -3.3234293444        0.4873353156       -1.9860453969
 O         -5.5195240444       -0.1499034222       -1.1394270148
 C         -3.4353105932       -1.5012896486       -0.2110939597
 C         -2.0770770523       -1.7356760901       -0.2980669554
 C         -1.5715966835       -2.9057089909        0.2473943997
 C         -2.4220912740       -3.8112168422        0.8627625864
 C         -3.7838519607       -3.5589591434        0.9383877647
 C         -4.2980274545       -2.3912702478        0.3988585879
 H         -5.3481284082       -2.1506988549        0.4301800224
 H         -4.4428443889       -4.2654474385        1.4168888468
 H         -2.0197783680       -4.7185725520        1.2852248813
 H         -0.5110469814       -3.0942463258        0.1902314895
 H         -1.4332787847       -1.0118654289       -0.7745910895
 H         -4.2775305008        2.0003923838        0.0706302840
 H         -3.2588943189       -0.3359566868        2.4804442585
 H         -0.9884558742       -0.4031679332        3.4805391848
 H          0.8213447519        0.9612894286        2.5072781167
 H          1.1302972579        3.3012913607        1.1561992391
 C          0.4014066028        3.3559834327       -0.8532460547
 C         -0.1838736459        4.7326282181       -0.7618906822
 C          1.2277179248        4.5471316053       -1.2297370887
 H          1.4520684877        4.7098299414       -2.2733117677
 H          2.0315704208        4.8213518201       -0.5621769807
 H         -0.9284779780        5.0260777535       -1.4870826809
 H         -0.3403993632        5.1455854097        0.2232854636
 H          0.0642962830        2.7085575037       -1.6560990142
