  62
        -98.94420677
 C          1.6933621500        1.2996641971        0.2586292551
 C          1.2950578032        0.2291759177       -0.5719840139
 C          1.8503652437       -1.0954588910       -0.2517020977
 C          2.6824249134       -1.2165648519        0.7968009955
 C          3.3860236513       -2.4573568416        1.2738859079
 C          4.7751964825       -2.5880821802        0.6255320583
 C          4.7958103148       -3.3208314065       -0.7151798681
 H          5.8093851589       -3.2384865564       -1.1141140726
 H          4.5940396945       -4.3806956876       -0.5469891370
 C          3.8108119581       -2.7942075517       -1.7614061980
 H          3.8220355090       -1.7028649249       -1.7582208658
 H          4.1588031638       -3.1203917165       -2.7432673235
 C          2.3758392643       -3.2993395166       -1.5484923087
 H          2.0004289826       -3.7292472959       -2.4794656297
 H          2.3835348668       -4.1065792099       -0.8165821261
 C          1.3680964075       -2.2240836340       -1.1216014175
 H          0.9629553283       -1.7341167399       -2.0129547251
 H          0.5199480418       -2.6990054779       -0.6141946357
 H          5.1823866430       -1.5812935495        0.5020749897
 H          5.4321626012       -3.1237799063        1.3137691890
 H          3.5128021086       -2.3431952149        2.3527422715
 H          2.7769880400       -3.3375089028        1.0894959571
 O          3.0505383188       -0.1549221302        1.5679964283
 C          2.5516254785        1.1136499165        1.3393172638
 O          2.9415026463        1.9796793049        2.1509398090
 O          0.5047437085        0.3735782148       -1.5431687659
 C          1.1113575234        2.6824800352        0.0300878669
 C         -0.3965759816        2.6019431559        0.0042170048
 C         -1.1841370536        3.3338980398       -0.8760296849
 C         -2.5615670545        3.1955612728       -0.8678451873
 C         -3.1797912816        2.3108516867       -0.0032495826
 C         -2.4010822725        1.5833943784        0.8890462489
 C         -1.0275174425        1.7575041039        0.9089756066
 H         -0.4393191986        1.1859027145        1.6125463815
 N         -2.9742089043        0.6508210365        1.7800035790
 S         -2.5459946901       -0.9582896306        1.5766619724
 O         -3.3153929836       -1.6761110013        2.5714352780
 O         -1.1154747691       -1.1056656313        1.6493657253
 C         -3.1561576441       -1.3759391505       -0.0475168843
 C         -4.3795194249       -2.0120224136       -0.1452643151
 C         -4.8974973662       -2.2844801064       -1.4005989681
 C         -4.1906915653       -1.9081232181       -2.5331219832
 C         -2.9677341020       -1.2663953239       -2.4167747495
 C         -2.4397652389       -0.9930132997       -1.1635382449
 H         -1.4868182712       -0.4979959684       -1.0549159416
 H         -2.4120055531       -0.9695622796       -3.2917471821
 H         -4.5937270229       -2.1164969511       -3.5116902541
 H         -5.8478500361       -2.7853993155       -1.4916347899
 H         -4.8897705303       -2.2879638802        0.7635724638
 H         -3.9819966862        0.7134089267        1.8376977772
 H         -4.2514658185        2.1804711635       -0.0166706721
 H         -3.1595599341        3.7697925626       -1.5587812160
 H         -0.7175486436        4.0085190280       -1.5752226563
 H          1.4132880581        3.2891553205        0.8969455166
 C          1.6976825033        3.2969526033       -1.2253177168
 C          1.8993397929        4.7785928088       -1.3241969056
 C          3.0806829041        3.8702000165       -1.1683026067
 H          3.7363499142        3.7225280803       -2.0132761705
 H          3.5865153921        3.8423175606       -0.2138038261
 H          1.7481199058        5.2574121067       -2.2799282513
 H          1.6112570631        5.3811533245       -0.4760393226
 H          1.4170688058        2.7549355288       -2.1211816263
