  62
        -98.94032039
 C          2.4814361398        1.0953909445        0.1044339810
 C          2.7240379943        0.0475046021       -0.8160777256
 C          4.1307246953       -0.3428012344       -0.9752860002
 C          5.0889029571        0.3105897679       -0.2930542643
 C          6.5680471153        0.0445746354       -0.3687749699
 C          7.0443092069       -1.0945296582        0.5431227072
 C          6.6501327324       -2.5002476712        0.0880565875
 H          6.9480362655       -2.6411445934       -0.9513150228
 H          7.2263140790       -3.2050621154        0.6907821355
 C          5.1572821918       -2.8218768063        0.2456868818
 H          4.6986599838       -2.1017722729        0.9272894362
 H          5.0429155051       -3.8086611273        0.6998127221
 C          4.3685722935       -2.8323549195       -1.0639070361
 H          4.7297365815       -3.6412006366       -1.7029219060
 H          3.3188320437       -3.0287594885       -0.8305521288
 C          4.4380740391       -1.5182629012       -1.8529111489
 H          5.4193981562       -1.4057426180       -2.3132115354
 H          3.6815212330       -1.5506318376       -2.6406731393
 H          6.6624581680       -0.9172351856        1.5511860506
 H          8.1345844386       -1.0421820190        0.5868892476
 H          6.8491988054       -0.1708523728       -1.3998734556
 H          7.0652818098        0.9656770581       -0.0573107698
 O          4.8142391033        1.3341860839        0.5597755974
 C          3.5093012206        1.7339982771        0.7971512692
 O          3.3966582631        2.6536509063        1.6336456568
 H         -1.4927511956        0.8750511258       -0.4478286918
 C         -1.0854200282        0.2113161062        0.2961569922
 C          0.1914348242        0.4067260299        0.7971486347
 C          0.6692068135       -0.4763478876        1.7625412432
 C         -0.1058132486       -1.5321456018        2.2006234340
 C         -1.3837064578       -1.7190646164        1.7031764333
 C         -1.8727465235       -0.8407991212        0.7444748743
 N         -3.1588038457       -1.0092457840        0.2061585745
 S         -4.0565528308        0.3724245328       -0.1641366060
 O         -3.6938699103        0.8309329658       -1.4812241014
 O         -3.9398261310        1.3386595376        0.9047098221
 C         -5.7034247452       -0.3122974570       -0.1990068969
 C         -6.4976176518       -0.2207737932        0.9285644439
 C         -7.7658493545       -0.7793250562        0.9027518082
 C         -8.2150886254       -1.4188391426       -0.2428515051
 C         -7.4068812792       -1.5021773055       -1.3670692861
 C         -6.1380800564       -0.9451198165       -1.3483796752
 H         -5.4786235113       -0.9772348811       -2.2000507837
 H         -7.7607334333       -1.9974890251       -2.2568371135
 H         -9.2026450697       -1.8520883064       -0.2608577247
 H         -8.3976526708       -0.7130802833        1.7738228784
 H         -6.1100336525        0.2943035219        1.7928401603
 H         -3.7103627206       -1.6894584064        0.7109922981
 H         -1.9921079806       -2.5409018825        2.0490954562
 H          0.2838123149       -2.2113335127        2.9442288602
 H          1.6631052028       -0.3233763863        2.1621474306
 C          1.0605336250        1.5608234655        0.3588869863
 H          1.1160503128        2.2771194510        1.1929606896
 C          0.5258086973        2.2812852583       -0.8616680375
 C         -0.5046466644        3.3587818625       -0.7141566619
 C          0.9025454794        3.7132424562       -1.0881123036
 H          1.1019086378        4.0411689725       -2.0972072348
 H          1.5274568790        4.1836692172       -0.3426794963
 H         -1.2780378418        3.4368021805       -1.4642209795
 H         -0.8433790957        3.5938313928        0.2841046141
 H          0.4650950859        1.6356973055       -1.7311449265
 O          1.8182034546       -0.5318684254       -1.4700191849
