  62
        -98.94704978
 C         -1.2357974703       -0.7788735826        0.6732548505
 C         -2.0622157027       -0.7428190792       -0.4750440844
 C         -2.7764450112        0.5197857321       -0.7118140641
 C         -2.5561248762        1.5663544549        0.1037309036
 C         -3.2438301742        2.8961882367       -0.0015306762
 C         -4.5243912961        2.9312334392        0.8447247066
 C         -5.4439851332        1.7304473162        0.6228482056
 H         -4.9423449278        0.8277829865        0.9786600528
 H         -6.3267637863        1.8771265287        1.2487700821
 C         -5.8788486821        1.5254988096       -0.8348778296
 H         -6.9504566119        1.3164510084       -0.8549907434
 H         -5.7166391089        2.4425820030       -1.4023413595
 C         -5.1847317114        0.3620457767       -1.5454106416
 H         -5.7136215069        0.1719182944       -2.4831078643
 H         -5.2655534234       -0.5406157432       -0.9347471543
 C         -3.7056902656        0.5774295819       -1.8915331983
 H         -3.3953227491       -0.2364385219       -2.5538705435
 H         -3.5848728487        1.5197890317       -2.4305683047
 H         -4.2410745993        2.9558409150        1.8994618776
 H         -5.0631900970        3.8524741923        0.6157454396
 H         -2.5575429653        3.6661391117        0.3557578280
 H         -3.4781266082        3.0940460722       -1.0458779607
 O         -1.7044814086        1.5151317833        1.1587769269
 C         -1.0253529929        0.3473964812        1.4673805864
 O         -0.2730945078        0.4400027996        2.4593709986
 H          1.3420097015       -0.3304007380        0.1124768367
 C          1.3800486990       -1.2416673287       -0.4638482006
 C          0.5243953235       -2.2843289830       -0.1280059662
 C          0.5818740152       -3.4580396566       -0.8652519238
 C          1.4492008009       -3.5594772307       -1.9403927388
 C          2.2608495302       -2.5012860520       -2.3035077012
 C          2.2250572433       -1.3271264352       -1.5562802164
 N          3.0524967350       -0.2473151036       -1.8829510051
 S          2.7666463973        1.3165414136       -1.3751216874
 O          1.3592455758        1.6391043287       -1.3257978926
 O          3.5689156318        2.1209546340       -2.2738618821
 C          3.5076607287        1.3600051051        0.2427764079
 C          4.8637412646        1.1049195107        0.3226180796
 C          5.4786484407        1.1209841507        1.5630260884
 C          4.7306101845        1.3891412300        2.7002778610
 C          3.3725573983        1.6469050621        2.6036352204
 C          2.7523630108        1.6357649767        1.3634056511
 H          1.6934548011        1.8216876795        1.2647408700
 H          2.7805271285        1.8475633373        3.4823160125
 H          5.2070533291        1.3978046715        3.6679425017
 H          6.5353522063        0.9225111999        1.6416081020
 H          5.4080406966        0.9077363183       -0.5858251434
 H          3.5194407575       -0.3007773694       -2.7748322072
 H          2.9143751057       -2.5754837878       -3.1590931476
 H          1.4795186099       -4.4722411434       -2.5160343706
 H         -0.0635121609       -4.2835750448       -0.6148587041
 C         -0.4432949049       -2.0339998537        1.0037959719
 H          0.1381959683       -1.7981648063        1.9067171611
 C         -1.3636096091       -3.1975891186        1.3002317384
 C         -0.8830856929       -4.3323643729        2.1525685512
 C         -1.8946607863       -3.3667781771        2.6908454437
 H         -2.9136910869       -3.7008743543        2.8161212007
 H         -1.5761646769       -2.6507982156        3.4347218956
 H         -1.2090795059       -5.3327408247        1.9115671137
 H          0.1243001170       -4.2761693992        2.5360838518
 H         -2.0347795479       -3.4198966131        0.4791601679
 O         -2.2040041297       -1.7146353438       -1.2634366214
