  62
        -98.94948586
 C          1.5824740188        0.8552181720       -0.7260499388
 C          1.4386847464        1.6886344994        0.4087898015
 C          0.4053901820        2.7303183151        0.3119094412
 C         -0.3545124783        2.8059052550       -0.7951496793
 C         -1.4390585822        3.8183166700       -1.0276885596
 C         -2.8137375856        3.3171136906       -0.5664437808
 C         -2.8264572685        2.7381404098        0.8484518390
 H         -3.8604515649        2.4707480853        1.0812039881
 H         -2.2495813756        1.8106656378        0.8773543289
 C         -2.2891652724        3.6842423668        1.9307274398
 H         -2.9539888224        3.6342602271        2.7957519393
 H         -2.3016001865        4.7137727068        1.5693762602
 C         -0.8855892179        3.3319694461        2.4279255706
 H         -0.7073476261        3.8732551382        3.3614347710
 H         -0.8411438031        2.2623415266        2.6518827701
 C          0.2653097080        3.6734945926        1.4727000916
 H          0.1615764439        4.7040775313        1.1246172720
 H          1.1997333388        3.5929510353        2.0361541622
 H         -3.5170603371        4.1506654809       -0.6226097009
 H         -3.1547876243        2.5419938062       -1.2570422614
 H         -1.4823420444        4.0290046299       -2.0980640395
 H         -1.1834795254        4.7347987833       -0.4988186590
 O         -0.2255591356        1.9494682173       -1.8414573396
 C          0.7372941683        0.9517646607       -1.8301652493
 O          0.7411560291        0.2293231812       -2.8472984897
 O          2.1521815471        1.5872156789        1.4413385320
 C          2.6248322243       -0.2505269735       -0.7323881986
 C          2.3165018869       -1.2169298883        0.3851870308
 C          3.2514741727       -1.6759965157        1.3026926512
 C          2.8645351938       -2.5287181416        2.3229709805
 C          1.5466898393       -2.9251456700        2.4588138494
 C          0.6067076637       -2.4821057927        1.5348592090
 C          1.0046923930       -1.6597115767        0.4955583296
 H          0.2749625888       -1.3201802165       -0.2250432007
 N         -0.7421598511       -2.8596920815        1.6192377878
 S         -1.9172657963       -1.7474450977        1.1841952775
 O         -1.5235430353       -0.3955796223        1.5022444784
 O         -3.1200318601       -2.2248834147        1.8361149864
 C         -2.0989251721       -1.9580582994       -0.5732592727
 C         -2.2404877270       -0.8451506510       -1.3768028123
 C         -2.3948244537       -1.0156058025       -2.7427930025
 C         -2.4098992155       -2.2937450025       -3.2780825331
 C         -2.2763152906       -3.4032828010       -2.4568968835
 C         -2.1208834039       -3.2382816495       -1.0901852133
 H         -2.0083182927       -4.0754273182       -0.4216196836
 H         -2.2872529165       -4.3951899910       -2.8793618540
 H         -2.5217003429       -2.4227866535       -4.3430477032
 H         -2.4830867953       -0.1504133434       -3.3800927821
 H         -2.2040457310        0.1337268093       -0.9243069218
 H         -0.9939406445       -3.3748284054        2.4503004174
 H          1.2435607776       -3.5661612946        3.2726386789
 H          3.5979367081       -2.8742811617        3.0357971409
 H          4.2779461383       -1.3562541714        1.2297062721
 H          2.4978559623       -0.7814758248       -1.6873637689
 C          4.0228826562        0.3263943659       -0.6742509473
 C          5.1730005371       -0.4292497378       -1.2673755968
 C          4.6602438104        0.8063105954       -1.9423434166
 H          5.2620376579        1.7020521638       -1.9098173658
 H          4.0925691926        0.6950011679       -2.8548546271
 H          6.1317835961       -0.3806851346       -0.7736573561
 H          4.9603736807       -1.3821935105       -1.7276698774
 H          4.1970876875        0.9068284779        0.2242455031
