  62
        -98.94615194
 C          1.0387854321        1.5655449739       -0.1652663968
 C          1.1671911237        0.1724505387       -0.3912352221
 C          2.2518246888       -0.4956340319        0.3412104274
 C          2.9966046163        0.1914495719        1.2238398823
 C          4.1091923275       -0.3631871773        2.0717661085
 C          5.4642780066       -0.4392990962        1.3544890722
 C          5.5787866186       -1.5332120110        0.2920405591
 H          6.6358249310       -1.6159764776        0.0314475570
 H          5.2737644102       -2.4875467340        0.7224544534
 C          4.7743148396       -1.2611980334       -0.9867030641
 H          4.5064245296       -0.2031086175       -1.0295016251
 H          5.3972588136       -1.4699937048       -1.8592858380
 C          3.5030852305       -2.0987186527       -1.1255038140
 H          2.9942273203       -1.7996372523       -2.0449244258
 H          3.7689162305       -3.1543724489       -1.2131545840
 C          2.5124901377       -1.9396419245        0.0354126309
 H          2.8824766988       -2.4540340427        0.9225322318
 H          1.5608202764       -2.3875838184       -0.2590054061
 H          5.6734603846        0.5326690620        0.9017538975
 H          6.2254332936       -0.6212506210        2.1168049649
 H          3.8314564819       -1.3521710620        2.4382209796
 H          4.2092395670        0.3071146999        2.9284533818
 O          2.8004433659        1.5152593924        1.4652830267
 C          1.8421221358        2.2289910664        0.7668380155
 O          1.8017181014        3.4426742783        1.0587057181
 O          0.4336846102       -0.5039202944       -1.1595916254
 C          0.0069336105        2.4420288328       -0.8598440632
 C         -1.3189838480        2.3750679401       -0.1408780839
 C         -1.9613575990        3.5273164692        0.2963674776
 C         -3.1676815402        3.4457531639        0.9693233378
 C         -3.7425982220        2.2164146483        1.2378945101
 C         -3.1053488133        1.0591846548        0.8054693392
 C         -1.9154248249        1.1463062058        0.1001616671
 H         -1.4310813001        0.2445570102       -0.2353385807
 N         -3.6496055200       -0.2099975451        1.0534916901
 S         -2.6220473247       -1.4846950698        1.4128389232
 O         -3.4561607000       -2.4225053926        2.1405131565
 O         -1.4399711274       -1.0369832102        2.1149097084
 C         -2.1986618598       -2.2241489889       -0.1494835114
 C         -1.1578657985       -3.1299766743       -0.1558786441
 C         -0.8213294155       -3.7596450355       -1.3427035884
 C         -1.5304547902       -3.4737508003       -2.4981336339
 C         -2.5762952885       -2.5654462073       -2.4735289132
 C         -2.9200012954       -1.9341759403       -1.2886408582
 H         -3.7201792579       -1.2139203869       -1.2423669474
 H         -3.1222419816       -2.3398021760       -3.3757537807
 H         -1.2609009731       -3.9577912742       -3.4237418923
 H         -0.0031447048       -4.4623540518       -1.3637876475
 H         -0.6250837096       -3.3111035028        0.7650633910
 H         -4.4743579558       -0.2213838672        1.6357529082
 H         -4.6722735704        2.1505602985        1.7825087095
 H         -3.6577101771        4.3475113652        1.3040809670
 H         -1.5007711267        4.4887682793        0.1225940794
 H          0.3822077573        3.4711648024       -0.7733308065
 C         -0.1706644435        2.1161244866       -2.3305555784
 C         -0.7156898045        3.1673040606       -3.2478922270
 C          0.7251897096        2.7648776381       -3.3404009060
 H          1.0483816901        2.1830553201       -4.1903102349
 H          1.4723046088        3.4551068748       -2.9753730347
 H         -1.3857662118        2.8633240931       -4.0370321381
 H         -0.9444305847        4.1334387606       -2.8240972820
 H         -0.4604468881        1.0889991663       -2.5072308879
