  62
        -98.94231620
 C          1.9954454828        1.3093382182       -0.1426138797
 C          3.0944273650        1.2131982814        0.7515916208
 C          4.2947807947        0.5423070914        0.2430729034
 C          4.3124277749        0.0783937093       -1.0191833043
 C          5.4696044651       -0.6022293192       -1.6984656694
 C          5.5715803846       -2.1050460237       -1.4038076415
 C          6.0435108282       -2.4607065742        0.0066477189
 H          6.2797935079       -3.5266677467        0.0057202948
 H          6.9665744788       -1.9232344274        0.2260086129
 C          5.0108161941       -2.1859323382        1.1089459915
 H          4.0212437291       -2.0677971394        0.6609078667
 H          4.9554848517       -3.0466845542        1.7792876927
 C          5.3131187982       -0.9597065001        1.9704881536
 H          4.4991687067       -0.8383179778        2.6898161853
 H          6.2361900277       -1.1243047211        2.5307398065
 C          5.4473748280        0.3490809467        1.1813125865
 H          6.3898556200        0.3634086502        0.6341935755
 H          5.4406602594        1.1797227307        1.8912547062
 H          4.5977491146       -2.5647674352       -1.5883745900
 H          6.2798911579       -2.5298724974       -2.1189482940
 H          5.3205411268       -0.4715990276       -2.7725285299
 H          6.4008502750       -0.1110117682       -1.4147571373
 O          3.2473134714        0.2005542048       -1.8521326062
 C          2.0588570229        0.7924885595       -1.4371231514
 O          1.1728528840        0.7846517592       -2.3129400825
 O          3.0740031683        1.6810875422        1.9210318346
 C          0.7561498923        2.0131608908        0.3830219297
 C         -0.2567328264        1.0335897072        0.9179604476
 C         -0.8021715984        1.1906857894        2.1866624133
 C         -1.7403941967        0.2931694864        2.6673336072
 C         -2.1582669644       -0.7727916408        1.8915406915
 C         -1.6228442218       -0.9353249254        0.6197130937
 C         -0.6799103803       -0.0368025978        0.1413900941
 H         -0.2690598014       -0.1668827323       -0.8490208385
 N         -2.0524012176       -2.0050525218       -0.1853837814
 S         -3.7032952878       -2.2637433126       -0.2985325516
 O         -4.1511084232       -3.0100943826        0.8512451858
 O         -3.9053176681       -2.8993749982       -1.5810910505
 C         -4.4307652834       -0.6348115135       -0.2796479988
 C         -4.1225661276        0.2257723874       -1.3147891479
 C         -4.6421563629        1.5099889741       -1.2960166555
 C         -5.4546065151        1.9102202973       -0.2461213541
 C         -5.7595051308        1.0326204763        0.7824793657
 C         -5.2424502449       -0.2529689336        0.7690758556
 H         -5.4528661927       -0.9669043276        1.5484860762
 H         -6.3937084118        1.3459525285        1.5959314542
 H         -5.8507373360        2.9131236149       -0.2320929361
 H         -4.4032573970        2.1943643723       -2.0940647814
 H         -3.4888740217       -0.1166350616       -2.1181233977
 H         -1.6183856830       -2.0208696368       -1.0968552826
 H         -2.8813382110       -1.4864917301        2.2515095785
 H         -2.1502576973        0.4235971177        3.6569538751
 H         -0.4748143175        2.0150830338        2.8027859834
 H          1.1211688713        2.6058528063        1.2366110063
 C          0.1587427589        2.9918506841       -0.6201257611
 C         -1.1386209797        2.7715911589       -1.3322070172
 C         -1.0475049837        3.8048211578       -0.2524210115
 H         -1.0704089607        4.8485417439       -0.5260512490
 H         -1.5260648845        3.5807159444        0.6888729745
 H         -1.2008911902        3.0919389090       -2.3609913781
 H         -1.6898413661        1.8684110537       -1.1242211870
 H          0.9326421662        3.5001574467       -1.1872654220
