  62
        -98.93634547
 C         -2.4103865496        0.8751623806       -0.2239961937
 C         -3.6960258781        0.9867777926       -0.8133741387
 C         -4.8335992317        0.5770138017        0.0198356278
 C         -4.6028195563        0.1090275104        1.2596917014
 C         -5.6605663074       -0.3971326988        2.1961891830
 C         -5.8723266735       -1.9082316527        2.0287057769
 C         -6.0552598419       -2.3491680179        0.5763875017
 H         -5.1236578225       -2.1777297242        0.0318320350
 H         -6.2278384336       -3.4276163032        0.5833969368
 C         -7.2081745571       -1.6515989785       -0.1590789636
 H         -7.7737210342       -2.4024364311       -0.7149526345
 H         -7.8902809502       -1.2019203483        0.5633580329
 C         -6.7671104515       -0.5897581571       -1.1682226908
 H         -6.0128328295       -1.0112524623       -1.8376515425
 H         -7.6328053414       -0.3213604969       -1.7796020775
 C         -6.2092291504        0.7083127053       -0.5710149001
 H         -6.9093906309        1.1041499408        0.1675181642
 H         -6.1188845242        1.4348621115       -1.3839149335
 H         -5.0015128896       -2.4271082496        2.4361884964
 H         -6.7467771503       -2.2011655018        2.6125837450
 H         -5.3393266229       -0.1957067856        3.2194744076
 H         -6.5911318527        0.1342085939        2.0061160031
 O         -3.3579534662       -0.0030763974        1.7852865331
 C         -2.2280823913        0.3606968628        1.0609020335
 O         -1.1613855649        0.1791164281        1.6750323186
 O         -3.8829282317        1.4081143328       -1.9862878356
 C         -1.2167153431        1.2725102109       -1.0746561109
 C         -0.1721544002        0.1858044713       -1.0391158902
 C         -0.4686567245       -1.0421628125       -1.6245267368
 C          0.4496249391       -2.0740916420       -1.6088240917
 C          1.6842353330       -1.9053016248       -1.0072759349
 C          1.9899418993       -0.6858741223       -0.4195116829
 C          1.0689588729        0.3547006812       -0.4475786722
 H          1.3118936289        1.2912901836        0.0298930327
 N          3.2330393845       -0.5157009763        0.2157175511
 S          4.5994182159       -1.0948435855       -0.5887418450
 O          4.5523024586       -0.7123529421       -1.9828585517
 O          4.7225944961       -2.5077997359       -0.3307106083
 C          5.8956993679       -0.2104343372        0.2555529118
 C          6.3701404172        0.9697933252       -0.2849412919
 C          7.3604327855        1.6657211742        0.3902739091
 C          7.8543576403        1.1738308753        1.5891549933
 C          7.3681489797       -0.0122763414        2.1188667713
 C          6.3786068826       -0.7136669757        1.4485380983
 H          5.9768360494       -1.6429570746        1.8173199240
 H          7.7567535100       -0.3923988780        3.0498335641
 H          8.6253802521        1.7169652567        2.1124325997
 H          7.7426440619        2.5864495023       -0.0202652615
 H          5.9640421851        1.3093177114       -1.2243738587
 H          3.3689807036        0.4312583489        0.5416110829
 H          2.4124106987       -2.7002824453       -0.9870779203
 H          0.2043463426       -3.0208006546       -2.0671635260
 H         -1.4360122776       -1.1787715322       -2.0895932290
 H         -1.6198546668        1.3158601730       -2.1003895297
 C         -0.6608256740        2.6567239391       -0.7768820274
 C         -1.5618806775        3.7605125934       -0.3120612229
 C         -0.5261400941        3.1995831886        0.6132458836
 H          0.3362630334        3.8092181813        0.8417079447
 H         -0.8466503227        2.5733765071        1.4306631037
 H         -1.4124749666        4.7505979432       -0.7157302218
 H         -2.5977780053        3.5144777718       -0.1294511651
 H          0.1145599746        2.9358588408       -1.4845619961
