  62
        -98.94740926
 C          2.5639730930        0.1370568116       -0.4019553204
 C          2.1703282978        0.7080227737        0.8325175342
 C          1.7251177583        2.1076794499        0.7779047373
 C          1.6984042779        2.7451077407       -0.4064336970
 C          1.2425856399        4.1606542865       -0.6128410351
 C         -0.2521449226        4.2312227425       -0.9508598522
 C         -1.1459163606        3.4481201411        0.0111827873
 H         -2.1808721682        3.6253493606       -0.2921487260
 H         -0.9632572095        2.3773806434       -0.1128326320
 C         -0.9741534639        3.8228626193        1.4898454479
 H         -0.4942462337        4.7993788585        1.5730537628
 H         -1.9639036640        3.9056624069        1.9434672962
 C         -0.1937305953        2.7953969267        2.3123656914
 H         -0.5959708807        1.7981174286        2.1185042036
 H         -0.3488168772        3.0167842424        3.3721482476
 C          1.3207612526        2.7581235943        2.0706678911
 H          1.7316795605        3.7684276716        2.1385289460
 H          1.7682073389        2.1495156311        2.8620854571
 H         -0.5531644919        5.2809590443       -0.9559533163
 H         -0.4008678410        3.8274249809       -1.9552321529
 H          1.4491191136        4.7354363421        0.2880951458
 H          1.8123299224        4.5838049865       -1.4424006283
 O          2.0718770876        2.1589215171       -1.5740721999
 C          2.4946940501        0.8408109990       -1.6025626767
 O          2.7903993693        0.4187066992       -2.7410513277
 H          0.4149164319       -1.0543501129       -0.9844317731
 C          0.5973018538       -1.9048780168       -0.3429398986
 C          1.8972842000       -2.2065016268        0.0402563848
 C          2.1083228895       -3.3156314608        0.8495378071
 C          1.0370836108       -4.0779847214        1.2831462424
 C         -0.2594862568       -3.7449491762        0.9365652321
 C         -0.4790767545       -2.6461599281        0.1137119766
 N         -1.7792140432       -2.2697082575       -0.2771578472
 S         -2.0890047929       -0.6044312728       -0.2914695927
 O         -1.6376606957       -0.0544416318       -1.5462466557
 O         -1.5654994177        0.0013708726        0.9096998306
 C         -3.8718268414       -0.6028495909       -0.2563158664
 C         -4.5339651680       -0.2449382624        0.9021792310
 C         -5.9200541310       -0.2724635287        0.9173975100
 C         -6.6152848252       -0.6586399632       -0.2184057920
 C         -5.9361677042       -1.0141313298       -1.3747472635
 C         -4.5510134815       -0.9864641644       -1.3975359413
 H         -3.9801085264       -1.2438038852       -2.2744739425
 H         -6.4800126784       -1.3111793102       -2.2568626123
 H         -7.6934639021       -0.6800676991       -0.2039344303
 H         -6.4501799970        0.0071814728        1.8134636493
 H         -3.9494527915        0.0526394801        1.7579675860
 H         -2.4929538744       -2.7596342119        0.2468757562
 H         -1.0942759594       -4.3264735724        1.2976343408
 H          1.2140358461       -4.9342758567        1.9162378042
 H          3.1101169741       -3.5763305065        1.1497213856
 C          3.0083936916       -1.3135927416       -0.4587435958
 H          3.1732999435       -1.5384691514       -1.5236333234
 C          4.3130629444       -1.5001889943        0.2881298068
 C          5.2965518175       -2.5413378683       -0.1527016812
 C          5.5901795560       -1.0896625607       -0.3791166573
 H          6.3545814034       -0.6155438386        0.2178070502
 H          5.5180378283       -0.7012561427       -1.3849288193
 H          5.8656082951       -3.0647651952        0.6007419019
 H          5.0369317032       -3.1432782891       -1.0104692446
 H          4.2147941342       -1.2997594399        1.3487947532
 O          2.2070279064        0.0861691616        1.9270467844
