  62
        -98.94571212
 C         -0.9543077625        1.1580900040        0.2587091384
 C         -1.9830205587        1.2056445047       -0.7192339212
 C         -2.8784010427        0.0450024895       -0.7865699652
 C         -2.6821756362       -0.9813033230        0.0604882371
 C         -3.5651299759       -2.1909508028        0.1587834094
 C         -4.6863577043       -1.9766996383        1.1856529998
 C         -5.4453692370       -0.6615676830        1.0096651460
 H         -6.2303671295       -0.6349135668        1.7686737322
 H         -4.7695233451        0.1709501602        1.2183125530
 C         -6.0704977838       -0.4699894583       -0.3792003271
 H         -6.1356848553       -1.4301390136       -0.8921637037
 H         -7.0902332079       -0.0989313227       -0.2560821116
 C         -5.3362018812        0.5326024741       -1.2712772979
 H         -5.9732706761        0.7518475013       -2.1323167445
 H         -5.1900849499        1.4688107627       -0.7266021304
 C         -3.9764961564        0.0727282488       -1.8123096678
 H         -3.6606345191        0.7950658918       -2.5704091005
 H         -4.0824063870       -0.9032949253       -2.2894868864
 H         -5.3843715149       -2.8129306831        1.1146580886
 H         -4.2463270460       -1.9852818082        2.1855540102
 H         -2.9570726397       -3.0386557760        0.4760395501
 H         -3.9921835601       -2.4033595873       -0.8192738121
 O         -1.6783157257       -1.0024665987        0.9703013155
 C         -0.7836166461        0.0518969958        1.0915482610
 O          0.0819290713       -0.1357664417        1.9685443501
 O         -2.1487229326        2.1841035722       -1.4957132753
 C         -0.0386316136        2.3692924341        0.3329589237
 C          1.2128389086        2.1329007717       -0.4775443135
 C          1.4437911170        2.8609380512       -1.6394222229
 C          2.5785058393        2.6364407335       -2.3978821508
 C          3.4948485014        1.6731892039       -2.0188124218
 C          3.2694540051        0.9345278610       -0.8610056984
 C          2.1388843650        1.1724981229       -0.0923437545
 H          1.9773448718        0.5956938200        0.8048052225
 N          4.1809829683       -0.0533243029       -0.4712704698
 S          3.7574385167       -1.3364110613        0.5002392214
 O          3.6611165285       -0.9136907914        1.8738708204
 O          4.7861807722       -2.3226229572        0.2301331357
 C          2.1988094355       -1.9807427847       -0.0843921214
 C          1.4111163887       -2.6614247822        0.8206406070
 C          0.2386115951       -3.2537527570        0.3809240359
 C         -0.1313787324       -3.1461897889       -0.9499876125
 C          0.6664809399       -2.4530426756       -1.8458572727
 C          1.8489673778       -1.8729430391       -1.4153094880
 H          2.4831977985       -1.3367283248       -2.1023365947
 H          0.3716653158       -2.3621293455       -2.8791262673
 H         -1.0482095572       -3.6004907229       -1.2917880109
 H         -0.3834459826       -3.7855984568        1.0831032075
 H          1.7199344339       -2.6991932553        1.8528232480
 H          4.8892096538       -0.2948263727       -1.1477229096
 H          4.3784838001        1.4891330762       -2.6103677687
 H          2.7475734896        3.2102538973       -3.2961784414
 H          0.7171208653        3.5959069890       -1.9524150537
 H         -0.5992577585        3.1795380092       -0.1535897434
 C          0.2960251402        2.8054684351        1.7447150996
 C          0.7021635441        4.2278344876        1.9841945674
 C         -0.6313483176        3.7380540101        2.4618887768
 H         -0.7838006122        3.5979273236        3.5215339866
 H         -1.5142354619        4.0691019693        1.9343199933
 H          1.4701528375        4.4265499982        2.7159062667
 H          0.7214858414        4.8931977357        1.1342300453
 H          0.7811149049        2.0383534335        2.3342475834
