  62
        -98.94255170
 C         -2.1267982192       -0.8884125923        0.1667963651
 C         -2.5619627239        0.0445982822        1.1367137493
 C         -2.8479926641        1.3984444429        0.6450732481
 C         -2.6413260992        1.6822946293       -0.6541926799
 C         -2.9158088954        3.0117473538       -1.2941173618
 C         -4.3429518783        3.0787785902       -1.8554541762
 C         -5.4168660763        2.6296038009       -0.8645754661
 H         -6.3839367207        2.7491898538       -1.3574827285
 H         -5.2887764311        1.5641691737       -0.6606903851
 C         -5.4193276089        3.4022604484        0.4617958545
 H         -6.4497778492        3.6598834290        0.7148951565
 H         -4.8701304888        4.3373133292        0.3465973233
 C         -4.8508452613        2.6238629190        1.6496295142
 H         -5.3334377853        1.6453353646        1.7106373174
 H         -5.0992239975        3.1693941013        2.5637994343
 C         -3.3315830963        2.4120042345        1.6444762886
 H         -2.8262131617        3.3687867347        1.4963769538
 H         -3.0469746810        2.0218688695        2.6262629244
 H         -4.5408265217        4.1048937192       -2.1705139089
 H         -4.3978927083        2.4356655354       -2.7367930200
 H         -2.7653640367        3.7996583155       -0.5583983173
 H         -2.2032886991        3.1502229790       -2.1093849570
 O         -2.1927860767        0.7677259017       -1.5517673089
 C         -1.9182132863       -0.5356836638       -1.1671314207
 O         -1.5066010045       -1.2680760865       -2.0870023693
 O         -2.6905428902       -0.2388058837        2.3594169890
 C         -1.7750194900       -2.2994137509        0.6058676411
 C         -0.3134696925       -2.5474470644        0.3227497672
 C          0.1708585967       -3.6717877219       -0.3317236348
 C          1.5211410705       -3.7933636443       -0.6152434439
 C          2.4157192722       -2.8034646763       -0.2522278754
 C          1.9433139109       -1.6873932544        0.4230085084
 C          0.5955284115       -1.5716137675        0.7137588084
 H          0.2343941823       -0.6876430417        1.2271941455
 N          2.8527119747       -0.6534549626        0.7756717110
 S          3.1817374516        0.3981954047       -0.5118653724
 O          2.1764772782        1.4419169340       -0.5572501491
 O          3.3667124853       -0.3801747069       -1.7087469427
 C          4.7412111038        1.0862438286        0.0102562998
 C          5.8808319313        0.3241379088       -0.1595116814
 C          7.0952656291        0.8282350517        0.2768752283
 C          7.1490191429        2.0783017234        0.8756658129
 C          5.9965000345        2.8312407731        1.0396053402
 C          4.7783420017        2.3318170625        0.6053904820
 H          3.8581678158        2.8849967824        0.7050651220
 H          6.0407590316        3.8035025662        1.5035104946
 H          8.0952135753        2.4691364071        1.2150808744
 H          7.9938017906        0.2463601707        0.1495539724
 H          5.7904112278       -0.6372960644       -0.6369906809
 H          2.4768584034       -0.0830376156        1.5236660135
 H          3.4626164065       -2.8720020720       -0.4967470466
 H          1.8781540049       -4.6677014551       -1.1379321046
 H         -0.5124370029       -4.4465490994       -0.6390643546
 H         -1.9254745654       -2.3145320321        1.6957670396
 C         -2.7012715652       -3.3127660613       -0.0307356172
 C         -2.9834297196       -4.6135115679        0.6585547521
 C         -4.0433284890       -3.5568673274        0.5894836885
 H         -4.8904393461       -3.7142371269       -0.0610413320
 H         -4.2800688921       -3.0078510001        1.4892455386
 H         -3.1059384776       -5.5001733375        0.0552342900
 H         -2.5044089776       -4.7884898405        1.6098497871
 H         -2.6429495552       -3.3050464361       -1.1134286667
