  62
        -98.93830735
 C          1.8131491726        1.0457862884       -0.1637573669
 C          2.3140087972       -0.0959393504       -0.8300365793
 C          3.7813511568       -0.2451313171       -0.8536430110
 C          4.5445652239        0.6925690246       -0.2658490198
 C          6.0422343471        0.7022549586       -0.1303433287
 C          6.4704813956        0.0784742345        1.2088866395
 C          6.6492362955       -1.4390857401        1.1858444974
 H          7.5449363719       -1.6859543024        0.6119760070
 H          6.8208303748       -1.7616823197        2.2153525257
 C          5.4696860832       -2.2297535710        0.6136423857
 H          4.5313472741       -1.8204396547        0.9925599501
 H          5.5450923978       -3.2555284930        0.9798361854
 C          5.4463740654       -2.2518286291       -0.9219326501
 H          5.3514777087       -3.2834472620       -1.2674178242
 H          6.4019935812       -1.8870374867       -1.2982816660
 C          4.3001258474       -1.4617205204       -1.5705119817
 H          4.5962838890       -1.1699591393       -2.5838735765
 H          3.4252645982       -2.1112426295       -1.6775159059
 H          5.7228097439        0.3498499224        1.9585152793
 H          7.4180920741        0.5253059337        1.5164021149
 H          6.3484109690        1.7503944161       -0.1390932339
 H          6.5088935956        0.1940452241       -0.9688224009
 O          4.0181967774        1.7811769557        0.3606722999
 C          2.6530136528        1.9847239852        0.4336986777
 O          2.3148993153        3.0158598724        1.0491199266
 O          1.5755887112       -0.9578339716       -1.3757675142
 C          0.3152090798        1.2859630942       -0.0911902126
 C         -0.3628136955        0.1017080095        0.5520096374
 C          0.1218323188       -0.3559104168        1.7757830441
 C         -0.4433719843       -1.4519319782        2.3959576636
 C         -1.5140792187       -2.1095673714        1.8152919933
 C         -2.0119101169       -1.6559148317        0.6006277808
 C         -1.4447759488       -0.5486364464       -0.0189251722
 H         -1.8413557648       -0.2302792909       -0.9681596644
 N         -3.0890676963       -2.3103137424       -0.0117456397
 S         -4.2404239090       -1.4528299911       -0.8571016393
 O         -5.4044981694       -2.3134815082       -0.8499228864
 O         -3.7481534177       -1.0777486473       -2.1583728172
 C         -4.5614464976        0.0068987254        0.1187707730
 C         -4.8415110920       -0.1405814127        1.4631811845
 C         -5.0958125361        0.9896443085        2.2225215019
 C         -5.0707028983        2.2423114588        1.6283223333
 C         -4.7964690307        2.3732459535        0.2762194675
 C         -4.5381603685        1.2456261427       -0.4869641832
 H         -4.3150176480        1.3024943315       -1.5398002471
 H         -4.7802679721        3.3470852380       -0.1867923406
 H         -5.2674100567        3.1211578731        2.2219167111
 H         -5.3118181439        0.8912355274        3.2741501450
 H         -4.8632336910       -1.1264039332        1.8979014321
 H         -3.4881656801       -3.0722430324        0.5153371357
 H         -1.9511489763       -2.9740957462        2.2912407496
 H         -0.0495407272       -1.7991157013        3.3392995119
 H          0.9612714801        0.1566829019        2.2263335982
 H          0.1793586846        2.1575920311        0.5656570546
 C         -0.2166309886        1.6268536148       -1.4669896711
 C         -1.4148950667        2.5127319343       -1.6170718687
 C         -0.0535368596        3.0273402283       -1.9739823152
 H          0.1883262475        3.1743137892       -3.0159721202
 H          0.4161630437        3.7403939737       -1.3119211410
 H         -2.1069879338        2.3032897250       -2.4188144129
 H         -1.8778940179        2.8831936031       -0.7151563978
 H         -0.0848550801        0.8196450519       -2.1789811777
