  62
        -98.94124323
 C          2.0242081644        1.2190396219        0.1212406836
 C          2.8161547375        0.6587538323        1.1559054052
 C          4.0023088279       -0.0920279729        0.7308193276
 C          4.2647428473       -0.2351543093       -0.5807293421
 C          5.4497877604       -0.9470879438       -1.1747720762
 C          5.2682110852       -2.4658740077       -1.3007739187
 C          5.3209742506       -3.2388644812        0.0176888086
 H          5.3987039956       -4.2982228051       -0.2349108395
 H          6.2262786497       -2.9667522413        0.5612919606
 C          4.0956123313       -3.0357410714        0.9198744553
 H          3.2764081121       -2.6162615654        0.3306806311
 H          3.7551694489       -4.0036709528        1.2951470643
 C          4.3437703944       -2.1402490182        2.1339738554
 H          3.4035991801       -2.0365575455        2.6818154272
 H          5.0684506981       -2.6168009771        2.7977853749
 C          4.8486782333       -0.7329792793        1.7891355917
 H          5.8896776545       -0.7751126919        1.4694103263
 H          4.7825006613       -0.1158211652        2.6885515459
 H          4.3177184938       -2.6638577408       -1.8020756453
 H          6.0672271683       -2.8370065584       -1.9467449038
 H          5.5903653576       -0.5338784554       -2.1759288609
 H          6.3400595393       -0.7338385882       -0.5823286098
 O          3.4607466346        0.2828959573       -1.5449284050
 C          2.3110576753        0.9994483751       -1.2274416950
 O          1.6620033316        1.3686632184       -2.2223258605
 O          2.5416010634        0.7791296022        2.3798964390
 C          0.7878549798        2.0005972409        0.5295781902
 C         -0.4111285402        1.5088827718       -0.2411973582
 C         -1.1603433416        2.3052221963       -1.0959900990
 C         -2.2341935263        1.7718214412       -1.7880473576
 C         -2.5888699795        0.4444521051       -1.6379805689
 C         -1.8549220472       -0.3578688608       -0.7726731671
 C         -0.7831516052        0.1794259742       -0.0770923318
 H         -0.2056579912       -0.4493060823        0.5900582606
 N         -2.2124121273       -1.7051113952       -0.6028164094
 S         -3.8336462765       -2.0944697532       -0.4757987576
 O         -3.8656218479       -3.3190584272        0.2932102665
 O         -4.4241718598       -2.1620901323       -1.7893328400
 C         -4.5712347177       -0.7578622031        0.4480246935
 C         -4.0989718389       -0.5079396096        1.7213765686
 C         -4.6407647763        0.5431433126        2.4428761796
 C         -5.6410206651        1.3225373469        1.8816998991
 C         -6.1085469112        1.0551464618        0.6046205270
 C         -5.5687490152        0.0061311502       -0.1223928886
 H         -5.9010552997       -0.2351510295       -1.1189396649
 H         -6.8879322764        1.6611072999        0.1716314141
 H         -6.0583194091        2.1420678481        2.4451188881
 H         -4.2788856599        0.7515999799        3.4369439906
 H         -3.3244352604       -1.1359736653        2.1318981829
 H         -1.6560659801       -2.2003307432        0.0774535168
 H         -3.4066557955        0.0108141524       -2.1902320121
 H         -2.7983725238        2.3978552132       -2.4622456868
 H         -0.8852680620        3.3360284365       -1.2449003092
 H          0.6399306342        1.7329413604        1.5894809279
 C          0.9568327728        3.5116292364        0.4908349966
 C          2.2991687353        4.1414727640        0.7093738201
 C          1.6439521785        4.2217820198       -0.6352479508
 H          1.2490686215        5.1752715027       -0.9546425315
 H          2.0388995149        3.6225920397       -1.4402045904
 H          2.3554937849        5.0362033274        1.3110295902
 H          3.1482048468        3.4832982604        0.8252476434
 H          0.1107689085        4.0218628696        0.9408506744
