  62
        -98.94507861
 C         -2.5548359901       -0.0908478268        0.4059378627
 C         -2.3179756544        0.5595391145       -0.8289041053
 C         -2.0797870393        2.0074378856       -0.7549982392
 C         -2.1083879546        2.6208899397        0.4417210260
 C         -1.8985915425        4.0915668316        0.6589540668
 C         -0.4324626386        4.4301707886        0.9559782244
 C          0.5640474745        3.8263817839       -0.0337419524
 H          1.5537212863        4.1998876556        0.2404790727
 H          0.5924772406        2.7417170378        0.0937487306
 C          0.2866681956        4.1567899042       -1.5066992916
 H         -0.3564968116        5.0352237926       -1.5774625986
 H          1.2340849417        4.4075651395       -1.9882709156
 C         -0.3279572579        3.0067169453       -2.3075129183
 H         -0.2219069201        3.2357987406       -3.3714746011
 H          0.2312626837        2.0886891170       -2.1071889630
 C         -1.8139388833        2.7298125767       -2.0450564638
 H         -2.3786767041        3.6636527901       -2.0916914399
 H         -2.1768542458        2.0673087268       -2.8364147160
 H         -0.3291097206        5.5175164065        0.9612347030
 H         -0.1856526104        4.0598091921        1.9539796837
 H         -2.2325010790        4.6296195459       -0.2264786579
 H         -2.5096606754        4.3980573817        1.5103249788
 O         -2.3319702452        1.9606167532        1.6084749133
 C         -2.5332184355        0.5901194173        1.6208933786
 O         -2.6930810511        0.1030398913        2.7611241474
 O         -2.3209360649       -0.0364502011       -1.9382423601
 C         -2.7869442269       -1.5897323996        0.4348971398
 C         -1.6342324725       -2.3174425301       -0.2157466314
 C         -1.7947201100       -3.4826069639       -0.9547506089
 C         -0.6951891574       -4.1129654054       -1.5122718394
 C          0.5768175182       -3.5956966255       -1.3559308211
 C          0.7473558105       -2.4258165982       -0.6214645664
 C         -0.3512254832       -1.8158933272       -0.0409492702
 H         -0.2086313982       -0.9210626864        0.5474207131
 N          2.0190104236       -1.8424244143       -0.5007248435
 S          2.3113142423       -0.6060506386        0.5969202206
 O          2.0581437317       -1.0547694117        1.9504395631
 O          1.6101981221        0.5765316754        0.1682466883
 C          4.0638322257       -0.3945979440        0.3497670934
 C          4.9481827368       -1.1022406490        1.1420837470
 C          6.3091202754       -0.9561547674        0.9242502730
 C          6.7604823899       -0.1103284126       -0.0778469735
 C          5.8612828333        0.5956251742       -0.8631208022
 C          4.4991464428        0.4535687450       -0.6503892704
 H          3.7623438216        0.9866317366       -1.2287268732
 H          6.2153855609        1.2555273286       -1.6385339520
 H          7.8199226710        0.0020855918       -0.2455312312
 H          7.0104627701       -1.5004392597        1.5358811050
 H          4.5515602110       -1.7377286565        1.9176118895
 H          2.7842408429       -2.4966130977       -0.5756929636
 H          1.4301699967       -4.0806015939       -1.8040178752
 H         -0.8328208898       -5.0191655039       -2.0825024313
 H         -2.7803220773       -3.8955530038       -1.0956632797
 H         -2.8120743041       -1.8740914300        1.4984343946
 C         -4.1271735268       -1.9216989776       -0.1915994040
 C         -4.9452011047       -3.0681034323        0.3202520811
 C         -5.3748452435       -1.6593982361        0.5953790762
 H         -6.2389245216       -1.2696291239        0.0787753421
 H         -5.2523130658       -1.2707862412        1.5963375106
 H         -5.5203057571       -3.6470452388       -0.3866373239
 H         -4.5442615420       -3.6420049670        1.1421815432
 H         -4.1498357436       -1.7067838937       -1.2538622788
