  62
        -98.93597941
 C         -0.5473426578       -1.7510715974       -0.7849698832
 C         -1.6645318043       -2.1290745100        0.0031149254
 C         -2.8647026754       -1.2916726271       -0.1104505359
 C         -2.8573779457       -0.2370578243       -0.9448067753
 C         -4.0069378611        0.6927602734       -1.2316051388
 C         -4.4927984081        1.5588207783       -0.0538334229
 C         -5.6611088480        0.9558085221        0.7359282259
 H         -6.3636175113        1.7524540599        0.9891924162
 H         -6.1991717259        0.2578563599        0.0933339788
 C         -5.2861388937        0.2581680372        2.0468812831
 H         -5.0965939543        1.0140625652        2.8123076860
 H         -6.1479267022       -0.3286622317        2.3723566738
 C         -4.0599394271       -0.6534901516        1.9900648361
 H         -4.0227777356       -1.2329929638        2.9147226878
 H         -3.1502048698       -0.0488037144        1.9688681151
 C         -4.0269572613       -1.6118956297        0.7838015399
 H         -3.8817257889       -2.6381871465        1.1271710885
 H         -4.9627103999       -1.5650896145        0.2285287667
 H         -4.8247183120        2.5090949327       -0.4746278619
 H         -3.6546638222        1.7679504056        0.6090394312
 H         -4.8427641901        0.1041580388       -1.6170394920
 H         -3.6591092868        1.3426033869       -2.0365704488
 O         -1.7709854158        0.0869498614       -1.6942096031
 C         -0.5865870089       -0.6393264894       -1.6283053384
 O          0.3076150505       -0.1913043993       -2.3673378090
 O         -1.6604873686       -3.1372059782        0.7603192932
 C          0.7015603749       -2.5996002236       -0.6278508021
 C          1.5541689182       -2.0836994898        0.5037757479
 C          2.0812540293       -2.9502063343        1.4544990326
 C          2.8644439175       -2.4667787877        2.4875591483
 C          3.1424736930       -1.1155238265        2.5858881686
 C          2.6136798321       -0.2392595533        1.6442537183
 C          1.8192366013       -0.7264669635        0.6168460706
 H          1.4155725106       -0.0429183808       -0.1136173965
 N          2.8441186907        1.1391047511        1.7348491466
 S          2.9661943275        2.0679340979        0.3475192410
 O          3.6403910031        1.3520228726       -0.7092664572
 O          3.6206532759        3.2807921145        0.7967341817
 C          1.2907122637        2.4702850584       -0.0916176701
 C          0.9548629174        2.5976139561       -1.4236555789
 C         -0.3333277842        2.9877484823       -1.7540588981
 C         -1.2556948571        3.2432887431       -0.7530211241
 C         -0.9023001019        3.1078905145        0.5810654244
 C          0.3837523457        2.7214079260        0.9192915546
 H          0.6928346314        2.6048481101        1.9450723169
 H         -1.6236501251        3.3060511494        1.3583344000
 H         -2.2575466345        3.5457931154       -1.0138390452
 H         -0.6109846582        3.0762875107       -2.7919757927
 H          1.6927177431        2.3669518449       -2.1750880366
 H          3.4975861359        1.4260749603        2.4485961541
 H          3.7579196420       -0.7366235896        3.3874934180
 H          3.2669299881       -3.1485161258        3.2212512759
 H          1.8618225985       -4.0055557839        1.3867062876
 H          0.3338225867       -3.5955008666       -0.3313971512
 C          1.4916573140       -2.7786223362       -1.9153980822
 C          2.7418545976       -2.0217940918       -2.2359958407
 C          2.8185713494       -3.4790696785       -1.8986201802
 H          3.0429535052       -4.1809542399       -2.6876044517
 H          3.2299092432       -3.7468605307       -0.9370700936
 H          2.8869127546       -1.7155907664       -3.2610681810
 H          3.1099712633       -1.2970660852       -1.5255971296
 H          0.8391679124       -2.9943564179       -2.7560884043
