  62
        -98.94792376
 C         -0.9354293340       -1.0706184080        0.7066709866
 C         -1.4449325186       -0.8889703733       -0.6019218201
 C         -2.1678793662        0.3678086690       -0.8322908378
 C         -2.2778208342        1.2692955509        0.1597702972
 C         -2.9589847600        2.6086438101        0.0683494535
 C         -4.4794325826        2.5521037406        0.2711621911
 C         -5.2706475441        1.9494586049       -0.8902609148
 H         -6.3240056407        2.1731192869       -0.7100766160
 H         -4.9863618009        2.4464228171       -1.8183986870
 C         -5.1090825008        0.4310585430       -1.0477693025
 H         -4.6996544490        0.0100860539       -0.1267584904
 H         -6.0893532218       -0.0254896415       -1.2015376585
 C         -4.2235503681        0.0062710531       -2.2195283027
 H         -4.6890189684        0.3078460716       -3.1606056719
 H         -4.1472001491       -1.0839771385       -2.2157757176
 C         -2.8008496189        0.5789284747       -2.1734677508
 H         -2.1880742131        0.0545371082       -2.9114509275
 H         -2.8107683950        1.6392270573       -2.4276659100
 H         -4.6884474977        1.9901884614        1.1841958669
 H         -4.8252747096        3.5770422597        0.4237516017
 H         -2.5314871817        3.2316367203        0.8570438863
 H         -2.7338698139        3.0680877361       -0.8951490855
 O         -1.7462958607        1.0695254724        1.3957221686
 C         -1.0622896616       -0.0981678011        1.6968605204
 O         -0.6169587055       -0.1467364698        2.8613964306
 H          1.4532903323       -0.3265604994        0.3489044829
 C          1.7770416640       -1.2522457257       -0.1047080829
 C          1.0612290564       -2.4162017618        0.1442430646
 C          1.5008973547       -3.6005605457       -0.4326326215
 C          2.6113918677       -3.6043718920       -1.2592971872
 C          3.2944330581       -2.4347523278       -1.5379661433
 C          2.8688388630       -1.2462011286       -0.9557321975
 N          3.5364512038       -0.0347249863       -1.1936999241
 S          2.6443668224        1.3734146695       -1.3510548836
 O          1.3670725198        1.1408157084       -1.9830797821
 O          3.5365839610        2.2808970494       -2.0442567920
 C          2.4181327104        1.9586301337        0.3137913714
 C          1.1788848850        2.4356929784        0.6904065277
 C          1.0055248815        2.9126581875        1.9793568363
 C          2.0727898259        2.9078813970        2.8634071628
 C          3.3138879062        2.4326123177        2.4674902698
 C          3.4934056358        1.9539098572        1.1797441362
 H          4.4411484433        1.5734215659        0.8371805234
 H          4.1396012553        2.4299249670        3.1606989432
 H          1.9315882274        3.2729468133        3.8683710717
 H          0.0364952358        3.2681917202        2.2911725882
 H          0.3715171911        2.4036121664       -0.0259441447
 H          4.2837578906       -0.0833480957       -1.8711688811
 H          4.1456322704       -2.4365101184       -2.2017172314
 H          2.9405118171       -4.5302007558       -1.7063911253
 H          0.9688914119       -4.5186712082       -0.2442115541
 C         -0.1480138783       -2.3234629628        1.0439413329
 H          0.2048896531       -2.1930324335        2.0778868585
 C         -1.0410345110       -3.5453407463        0.9822509001
 C         -0.7786506528       -4.7217633576        1.8725879807
 C         -1.9541425360       -3.8306249053        2.1354205091
 H         -2.9453202697       -4.2053023108        1.9283552768
 H         -1.9093693458       -3.1575342823        2.9794644523
 H         -0.9659653126       -5.7125185146        1.4866850882
 H          0.0616178394       -4.6610513808        2.5474979800
 H         -1.4219411673       -3.7301553506       -0.0156671649
 O         -1.3083998751       -1.7314483456       -1.5269404387
