  62
        -98.94468169
 C          2.5417897838        0.8698379510        0.2953671085
 C          2.5084324473       -0.0161410905       -0.8089296307
 C          2.8195013026       -1.4231045830       -0.5168709408
 C          3.1364618109       -1.7900376601        0.7368895677
 C          3.4214794441       -3.1949551466        1.1794964397
 C          2.1493445242       -3.8936857603        1.6782932079
 C          0.9569635676       -3.7784567296        0.7275516579
 H          0.1391312412       -4.3582526522        1.1619288951
 H          0.6160749432       -2.7407322117        0.6832834220
 C          1.2272169433       -4.2753367399       -0.6992263318
 H          2.1031817319       -4.9259348944       -0.7094843793
 H          0.3726189284       -4.8711714936       -1.0268939833
 C          1.4068324913       -3.1592790046       -1.7303114808
 H          0.5846479329       -2.4439432545       -1.6300583779
 H          1.3350969533       -3.6013747724       -2.7283376935
 C          2.7364408882       -2.3959389940       -1.6588121323
 H          3.5664405869       -3.1049551406       -1.6266588088
 H          2.8287880017       -1.7996645277       -2.5713829361
 H          2.3802072461       -4.9478388324        1.8439506609
 H          1.8644630539       -3.4524870740        2.6360780081
 H          3.8521916311       -3.7512109134        0.3493182484
 H          4.1459011230       -3.1565094365        1.9950219880
 O          3.1989812114       -0.9077134644        1.7656687062
 C          2.8734361363        0.4229510518        1.5790824673
 O          2.9304353173        1.1109964322        2.6180187673
 H          0.3775050339        1.3647432372       -1.5831540022
 C         -0.1196591948        1.8231183518       -0.7412159153
 C          0.6356014313        2.4131981002        0.2622308457
 C         -0.0293547237        2.9773472400        1.3446554998
 C         -1.4110036316        2.9368170427        1.4240896703
 C         -2.1556729639        2.3062444024        0.4419766513
 C         -1.4973151554        1.7410834339       -0.6407811949
 N         -2.2395981557        0.9950142816       -1.5967458709
 S         -2.4714660069       -0.5880898489       -1.0465109662
 O         -1.3514066866       -1.0434565501       -0.2534702840
 O         -2.7929213662       -1.3742233953       -2.2178252575
 C         -3.9164755868       -0.4202919368       -0.0225919337
 C         -5.1309167011       -0.1897882022       -0.6391423584
 C         -6.2585653485       -0.0183914902        0.1475578626
 C         -6.1520165493       -0.0776722290        1.5293790586
 C         -4.9256415971       -0.3116269482        2.1326843252
 C         -3.7936981590       -0.4842647584        1.3510600970
 H         -2.8182300849       -0.6633005996        1.7751492559
 H         -4.8441376867       -0.3571472129        3.2068395150
 H         -7.0300546238        0.0588345988        2.1407098549
 H         -7.2142359637        0.1625775997       -0.3173745540
 H         -5.1653086205       -0.1563202756       -1.7152973992
 H         -1.7582747596        0.9405249562       -2.4857093625
 H         -3.2296485298        2.2422434000        0.5097746782
 H         -1.9117504909        3.3809824051        2.2706592151
 H          0.5482813417        3.4244373905        2.1407283639
 C          2.1427217596        2.3384811263        0.2115162052
 H          2.5367276922        2.8088792303        1.1221439213
 C          2.7112858958        3.0658329557       -0.9893049705
 C          2.8078337802        4.5604411703       -0.9491307799
 C          4.0508190234        3.7264538172       -0.8765224414
 H          4.7095820556        3.7011989283       -1.7314458076
 H          4.5639531162        3.6557194441        0.0716180795
 H          2.4800245843        5.0585584701       -0.0493086751
 H          2.6115065428        5.1128539256       -1.8550846622
 H          2.4675825826        2.6001482415       -1.9346906697
 O          2.2370844509        0.3229948670       -1.9940156631
