  62
        -98.93591746
 C         -1.7215400099       -0.9585700967       -0.1010047564
 C         -2.3400391739        0.2828225015       -0.3712041584
 C         -3.8030181390        0.3444362711       -0.1799492298
 C         -4.4537393271       -0.7514073931        0.2506491826
 C         -5.9273269189       -0.9338991465        0.5139957477
 C         -6.6381575213        0.1996252870        1.2693676876
 C         -7.6051989200        0.9996005291        0.3950339958
 H         -8.1280516887        0.3075718046       -0.2684390895
 H         -8.3560994776        1.4636748008        1.0383867655
 C         -6.9619530530        2.1079099861       -0.4367330907
 H         -7.7262218243        2.5009112170       -1.1114399693
 H         -6.6596554910        2.9249223354        0.2220734035
 C         -5.7477723602        1.6837118826       -1.2656846924
 H         -5.6381652087        2.3968959420       -2.0855672296
 H         -5.9149349490        0.7059694497       -1.7161041070
 C         -4.4319375329        1.6792605839       -0.4729492750
 H         -4.5613707765        2.2220747241        0.4680095853
 H         -3.6652696635        2.2271686324       -1.0300030661
 H         -5.9022033454        0.8615425368        1.7231467061
 H         -7.2122358351       -0.2501288515        2.0810890503
 H         -6.4296501002       -1.1158914938       -0.4392901957
 H         -5.9993650590       -1.8623379899        1.0850087553
 O         -3.8113872861       -1.9292468206        0.4988901307
 C         -2.4469154454       -2.0678900795        0.3293752914
 O         -2.0039048248       -3.2028580348        0.5974854682
 O         -1.7047613135        1.2994943123       -0.7570549163
 C         -0.2239745570       -1.1192398964       -0.2888960027
 C          0.5238914741       -0.1013580981        0.5365971682
 C          0.1449775820        0.1020042007        1.8617406887
 C          0.7907926661        1.0354910432        2.6474410465
 C          1.8442902903        1.7737574616        2.1364232718
 C          2.2422490245        1.5669866058        0.8222574787
 C          1.5881715021        0.6293500064        0.0324570257
 H          1.9102177663        0.5036421949       -0.9874969101
 N          3.3101980136        2.2953614658        0.2770901502
 S          4.4091995590        1.5273581035       -0.7172871983
 O          5.6127057951        2.3242564831       -0.6100209117
 O          3.8739357178        1.3771147330       -2.0463828784
 C          4.6682521558       -0.0747723737        0.0256045124
 C          4.4579919718       -1.2162210184       -0.7191919780
 C          4.6499403554       -2.4524068408       -0.1225718656
 C          5.0441395970       -2.5247189460        1.2040491049
 C          5.2577956984       -1.3679144815        1.9382309568
 C          5.0703078976       -0.1300652715        1.3458669966
 H          5.2385689349        0.7858657772        1.8883109176
 H          5.5673590967       -1.4280045553        2.9691556896
 H          5.1871683971       -3.4881213798        1.6675189952
 H          4.4886245142       -3.3528921601       -0.6938774071
 H          4.1462915472       -1.1156675671       -1.7459537599
 H          3.7623894982        2.9309526278        0.9173542967
 H          2.3455049969        2.5103219394        2.7457010815
 H          0.4747609360        1.1895669542        3.6681727236
 H         -0.6777288401       -0.4749705346        2.2620725811
 H          0.0234884578       -2.1201404080        0.0947809877
 C          0.1153738068       -1.0666690059       -1.7641345787
 C          1.2608411440       -1.8638392563       -2.3079216427
 C         -0.1481276905       -2.2747162072       -2.6102417310
 H         -0.5273764872       -2.1311664343       -3.6109183964
 H         -0.5448720414       -3.1483801146       -2.1134719907
 H          1.8528737444       -1.4340346673       -3.1025261547
 H          1.8215810668       -2.4668528942       -1.6100646626
 H         -0.0872508544       -0.0964780697       -2.2041017474
