  62
        -98.93598923
 C          2.0266325833        1.5267426611        0.0851208323
 C          2.3538412406        0.5754867267       -0.9096660824
 C          3.6917309289       -0.0427529462       -0.8153199746
 C          4.5113586146        0.2850808426        0.1996381947
 C          5.9227628439       -0.1568852620        0.5246964050
 C          6.5224090582       -1.4023842856       -0.1234929586
 C          5.8514704258       -2.7174649336        0.2703849236
 H          6.3080624373       -3.5203693083       -0.3127078477
 H          6.0593226328       -2.9132836964        1.3253574154
 C          4.3371611648       -2.7676647432        0.0819410208
 H          3.9962116776       -3.7629663806        0.3803151418
 H          3.8590263681       -2.0519264682        0.7542892681
 C          3.8468598970       -2.5159513888       -1.3429559827
 H          2.7798758499       -2.7541247719       -1.3685360707
 H          4.3553995324       -3.1937577827       -2.0313186316
 C          4.0130030019       -1.0748009128       -1.8579696298
 H          5.0087456793       -0.9113144318       -2.2630700576
 H          3.2982470084       -0.9240696686       -2.6721724015
 H          6.5401144020       -1.2955345221       -1.2041316133
 H          7.5636559997       -1.4524029241        0.2064958329
 H          6.5653796248        0.6984588783        0.2878434700
 H          5.9520509638       -0.2713629949        1.6129118139
 O          4.1471003910        1.1998726079        1.1449930507
 C          2.9198781327        1.8338314771        1.1144716467
 O          2.7425641768        2.6455282898        2.0445509971
 H         -0.0760745293       -0.2439319357       -0.4470551764
 C         -0.6365535680        0.1675186459        0.3792945061
 C         -0.3622262018        1.4593134069        0.8084853155
 C         -1.0986737226        1.9791202638        1.8660401937
 C         -2.0769356100        1.2190188212        2.4843462219
 C         -2.3449610515       -0.0686939412        2.0566641729
 C         -1.6184887245       -0.5945180504        0.9953332492
 N         -1.8940456830       -1.8954368304        0.5389376604
 S         -3.5009817912       -2.2996471529        0.2995217204
 O         -4.0976044765       -2.6648735088        1.5605779908
 O         -3.4910283619       -3.3292952935       -0.7152554569
 C         -4.2650044944       -0.8110166318       -0.3199123518
 C         -5.2432313417       -0.1780976311        0.4195277167
 C         -5.7895842937        1.0009534895       -0.0617328425
 C         -5.3473927767        1.5257410292       -1.2660051098
 C         -4.3675774392        0.8752674118       -2.0004004426
 C         -3.8184181315       -0.3043519629       -1.5244905050
 H         -3.0563503970       -0.8353944097       -2.0732752724
 H         -4.0228162586        1.2858220831       -2.9357903248
 H         -5.7673088623        2.4471979704       -1.6369037110
 H         -6.5534551370        1.5076074626        0.5056847369
 H         -5.5558718621       -0.6198401540        1.3515541068
 H         -1.3252421119       -2.1744338321       -0.2471688504
 H         -3.0962813665       -0.6782548922        2.5319397084
 H         -2.6360975633        1.6327103005        3.3094078114
 H         -0.8888311133        2.9802248651        2.2130549893
 C          0.7042838493        2.2770677792        0.1267256668
 H          0.8995363561        3.1576212116        0.7582773951
 C          0.2774292079        2.7915843196       -1.2430445724
 C         -0.9071082850        2.2768819315       -1.9987476649
 C         -0.9557590516        3.6361960176       -1.3734106927
 H         -0.9218855661        4.5064786571       -2.0109164743
 H         -1.5675754172        3.7547570606       -0.4918501474
 H         -0.8147391292        2.1974641968       -3.0712120317
 H         -1.4993414453        1.4937398307       -1.5528010895
 H          1.1333301065        3.0876074327       -1.8415125832
 O          1.5847254846        0.2398406225       -1.8479349281
