  62
        -98.94122645
 C         -1.7778908942       -0.0546473652        0.3756369742
 C         -2.9204074812       -0.4219742499        1.1351828769
 C         -4.1827749010        0.2377892902        0.7793159950
 C         -4.1829768574        1.1743635623       -0.1860090078
 C         -5.4027687383        1.8916380706       -0.6853570981
 C         -6.0410914682        1.1465093660       -1.8661492710
 C         -6.2486866154       -0.3472074273       -1.6154842836
 H         -6.7315657079       -0.7616646974       -2.5031027850
 H         -5.2740040573       -0.8321254715       -1.5248089742
 C         -7.0931437334       -0.6718272392       -0.3752752077
 H         -7.8181729014       -1.4451168688       -0.6378577341
 H         -7.6574012612        0.2101762976       -0.0700843702
 C         -6.2922732786       -1.1981111949        0.8171948265
 H         -6.9977525508       -1.5960681476        1.5513748534
 H         -5.6559614111       -2.0259965599        0.4941498544
 C         -5.4150311993       -0.1669720382        1.5382793135
 H         -6.0137328389        0.7091856866        1.7956311671
 H         -5.0586268005       -0.6241488309        2.4660309869
 H         -7.0001784672        1.6160035791       -2.0922889391
 H         -5.3933634080        1.2606734338       -2.7386097971
 H         -5.1050095274        2.8887660988       -1.0142233965
 H         -6.1197888143        1.9873631914        0.1278433869
 O         -3.0619919691        1.5438741940       -0.8523622452
 C         -1.8334775108        0.9403909278       -0.6022634705
 O         -0.9111350960        1.3841432742       -1.3102483073
 O         -2.8837290282       -1.2642111984        2.0709139889
 C         -0.4703319208       -0.7437948576        0.7267508202
 C          0.6225590855        0.2674966002        0.9492606738
 C          0.7174278021        0.9268342303        2.1706867560
 C          1.7193309844        1.8517771114        2.4027407334
 C          2.6464177747        2.1431064979        1.4167644503
 C          2.5467132505        1.5038328611        0.1901786186
 C          1.5506384610        0.5651850600       -0.0362119308
 H          1.4814090125        0.0812066252       -0.9980751106
 N          3.5141141631        1.7779697900       -0.8098740632
 S          4.9724673220        0.9996656346       -0.5343282961
 O          5.5789200748        1.5619436331        0.6449601822
 O          5.7296463087        1.1071536060       -1.7606975123
 C          4.5096930028       -0.6973422131       -0.2344381232
 C          4.3690337883       -1.5493492924       -1.3115778682
 C          3.9052270170       -2.8363764603       -1.0922395201
 C          3.5782259309       -3.2417610454        0.1929453934
 C          3.7231668098       -2.3732173698        1.2641007793
 C          4.1908990541       -1.0865457868        1.0511744310
 H          4.3154919905       -0.3810445513        1.8563136133
 H          3.4639483667       -2.6900189833        2.2615639200
 H          3.2071432289       -4.2407988901        0.3611907168
 H          3.7927320470       -3.5156475913       -1.9221180424
 H          4.6338385121       -1.1940376931       -2.2947690410
 H          3.1841498030        1.5463364774       -1.7369920988
 H          3.4473091770        2.8456706148        1.5809806547
 H          1.7812546959        2.3490956821        3.3588313786
 H         -0.0071911833        0.7042743575        2.9417751598
 H         -0.6790202832       -1.2350642747        1.6906145592
 C         -0.0470078897       -1.8444747225       -0.2357105813
 C         -1.0645014758       -2.7683346611       -0.8325481900
 C         -0.3237450213       -1.8039211802       -1.7073984755
 H          0.4296865770       -2.1950836156       -2.3757652927
 H         -0.8545253057       -0.9518449410       -2.1022957477
 H         -0.8299950862       -3.8191985680       -0.9062987050
 H         -2.1037336319       -2.5655551866       -0.6175936833
 H          0.8970790895       -2.2903312398        0.0634913294
