  62
        -98.94458002
 C         -1.7063938399       -0.3936751088        0.2476401823
 C         -2.8358709299       -0.3059293540        1.1056198118
 C         -3.9349462799        0.5590669735        0.6610780769
 C         -3.8124482399        1.2285605669       -0.4990545069
 C         -4.8709690299        2.1034705635       -1.1035533018
 C         -5.7775514900        1.3037863781       -2.0497452772
 C         -6.3039393599        0.0016024515       -1.4462158298
 H         -6.9553666299       -0.4615202827       -2.1904927472
 H         -5.4660843199       -0.6802367976       -1.2837951560
 C         -7.0751815299        0.1777356690       -0.1306362408
 H         -7.3850276999        1.2174428296       -0.0188677367
 H         -7.9830247599       -0.4276892613       -0.1734537373
 C         -6.3076132099       -0.2589963239        1.1186858317
 H         -5.9154963598       -1.2687273348        0.9732536474
 H         -7.0123005298       -0.2990924292        1.9535444319
 C         -5.1482463699        0.6516390985        1.5427491665
 H         -5.4971310999        1.6841690589        1.6107652006
 H         -4.8216570898        0.3333771341        2.5370917182
 H         -6.6169175100        1.9377553764       -2.3412230808
 H         -5.2083971800        1.0586305530       -2.9494485159
 H         -5.4629418299        2.5510433780       -0.3075092943
 H         -4.3802196700        2.8975666103       -1.6690205163
 O         -2.7107197099        1.1418475825       -1.2829350464
 C         -1.6379758699        0.3289514844       -0.9434451718
 O         -0.7143521299        0.3622732697       -1.7824203520
 H          0.8859857801        0.6895290478       -0.3541987039
 C          1.2206976901        0.4224757234        0.6370756776
 C          0.5604269102       -0.5806035326        1.3320891533
 C          1.0142907002       -0.9133859854        2.6028588852
 C          2.1011329602       -0.2607277723        3.1596352814
 C          2.7552544302        0.7402498338        2.4633295257
 C          2.3018763101        1.0850164666        1.1975509238
 N          2.9739289801        2.0949942125        0.4672904680
 S          4.4934219001        1.6358119194       -0.0762833894
 O          5.3720557901        1.5136156959        1.0589802113
 O          4.8709247700        2.6084665237       -1.0761953749
 C          4.2251911801        0.0390879052       -0.8225518803
 C          4.3484555001       -1.0973682604       -0.0489569439
 C          4.0449326101       -2.3253505136       -0.6135206569
 C          3.6217550801       -2.3938711811       -1.9318358865
 C          3.5001900800       -1.2428166955       -2.6946048430
 C          3.7985449100       -0.0117052423       -2.1342383100
 H          3.7166382800        0.9064827045       -2.6941041753
 H          3.1654789000       -1.2984823913       -3.7181470627
 H          3.3851801701       -3.3504264836       -2.3713361911
 H          4.1337938002       -3.2219236903       -0.0216275218
 H          4.6816173002       -1.0006578846        0.9712431855
 H          2.4338341501        2.4121391980       -0.3268216138
 H          3.6129769902        1.2499213361        2.8714206228
 H          2.4421616002       -0.5329426166        4.1467641630
 H          0.5040609002       -1.6852496423        3.1598840496
 C         -0.5908942099       -1.3222379763        0.6970680975
 H         -1.0461720598       -1.9562779619        1.4696139311
 C         -0.0705026899       -2.2176707826       -0.4122405474
 C          0.5205841602       -3.5469779905       -0.0561970499
 C         -0.8107859699       -3.4777967244       -0.7406855602
 H         -0.8802888999       -3.7785912503       -1.7751038385
 H         -1.6956194198       -3.7016757012       -0.1623475589
 H          0.5382811802       -3.8234597546        0.9868443917
 H          1.3695910601       -3.8978567337       -0.6204684479
 H          0.3732718201       -1.6698785372       -1.2336238905
 O         -2.9208059798       -0.9338837678        2.1945502954
