  62
        -98.94044107
 C          1.4733873212       -1.5624756756        0.0995961093
 C          1.4753064557       -0.1803372301       -0.1989459789
 C          2.7833539846        0.4187400177       -0.5242200363
 C          3.8844982308       -0.3550891385       -0.5199937232
 C          5.3308350821       -0.0302407601       -0.8313604662
 C          5.8009869241        1.4189239211       -0.9279793352
 C          5.7815087907        2.1891375059        0.3922811590
 H          6.5596694441        1.7811799361        1.0425143648
 H          6.0366065004        3.2304317055        0.1833591508
 C          4.4661983279        2.1446538626        1.1663197149
 H          4.2503533517        1.1160755472        1.4624830520
 H          4.6013164796        2.7219088641        2.0851834096
 C          3.2538958553        2.7143361572        0.4323460761
 H          2.4280701943        2.7558943287        1.1471077288
 H          3.4691356704        3.7333848444        0.1051677018
 C          2.7735780232        1.8983943540       -0.7796120022
 H          3.3465318360        2.1394627133       -1.6714880840
 H          1.7299172769        2.1626155514       -0.9743626567
 H          6.8378909515        1.3863768295       -1.2737814425
 H          5.2336703952        1.9482614462       -1.6876987230
 H          5.5497494148       -0.5290808563       -1.7819961329
 H          5.9229282185       -0.5486853759       -0.0703743287
 O          3.8254341769       -1.6932598978       -0.2466160038
 C          2.6363975348       -2.3268816337        0.0699654214
 O          2.7459835441       -3.5497061223        0.2942142503
 O          0.4357979530        0.5256059025       -0.2012694718
 C          0.1684420238       -2.2435786090        0.4710677048
 C         -0.8636823769       -1.9580742115       -0.5913250646
 C         -0.5734376556       -2.2882667848       -1.9131173224
 C         -1.4708141804       -2.0068893784       -2.9243160783
 C         -2.6700364613       -1.3753945980       -2.6425786573
 C         -2.9728470613       -1.0516532037       -1.3260329456
 C         -2.0806911963       -1.3605415036       -0.3081822577
 H         -2.3517973505       -1.1157542190        0.7039986927
 N         -4.1825009622       -0.4214679050       -1.0071089265
 S         -4.3049062493        0.6183404932        0.2921441112
 O         -4.3441790939       -0.1313552064        1.5236929125
 O         -5.4911910084        1.3974268046        0.0009355170
 C         -2.8780943609        1.6875144963        0.2640749841
 C         -2.5979512894        2.3883212712       -0.8909219524
 C         -1.5202044364        3.2570433169       -0.9012599931
 C         -0.7481562865        3.4144591570        0.2383255352
 C         -1.0435199913        2.7048745000        1.3899703902
 C         -2.1175518381        1.8313948821        1.4048411483
 H         -2.3767214597        1.2543639612        2.2789976574
 H         -0.4351707230        2.8205229917        2.2734600164
 H          0.0944581590        4.0884547590        0.2268029993
 H         -1.2804581335        3.8042393474       -1.7992323949
 H         -3.2194186163        2.2511838257       -1.7612883064
 H         -4.7300102835       -0.1110800048       -1.7954969688
 H         -3.3651031126       -1.1377905497       -3.4333127152
 H         -1.2309398889       -2.2683126095       -3.9440813054
 H          0.3741734404       -2.7606400606       -2.1358751537
 H          0.3729969899       -3.3238222990        0.4821696177
 C         -0.2598666599       -1.8102986955        1.8575874399
 C         -1.1598592619       -2.6841236607        2.6768255382
 C          0.2824502836       -2.5294567744        3.0540589133
 H          0.5277849571       -1.9547245834        3.9345992327
 H          0.9517444131       -3.3582414839        2.8738201056
 H         -1.9123148444       -2.2163111224        3.2942844183
 H         -1.4728822515       -3.6223006449        2.2439013169
 H         -0.3839542442       -0.7356816871        1.9360303918
