  62
        -98.93351001
 C         -2.2051206128       -0.9557206888        0.6698267458
 C         -3.2953064966       -0.7331106304       -0.2048309823
 C         -4.1601397820        0.4207669055        0.1066337433
 C         -3.8731320644        1.2027220804        1.1601502066
 C         -4.6258542145        2.4024424972        1.6801891592
 C         -5.1810837657        3.3965554571        0.6519522736
 C         -4.3177543067        3.5795431502       -0.6047988661
 H         -4.1450825137        4.6455828713       -0.7643917896
 H         -3.3423947833        3.1107747609       -0.4603378525
 C         -4.9736890751        3.0152328053       -1.8673045521
 H         -6.0307367815        3.2899536158       -1.8653074386
 H         -4.5149010612        3.4847106802       -2.7407173630
 C         -4.8498030794        1.5031815112       -2.0483944109
 H         -3.8119541738        1.2403830867       -2.2707009981
 H         -5.4460252253        1.2183835539       -2.9185021010
 C         -5.2974149944        0.6559514559       -0.8462550724
 H         -6.1539558847        1.1011108964       -0.3464484308
 H         -5.5849375983       -0.3304918558       -1.2194630746
 H         -6.1830835494        3.0916333846        0.3537578715
 H         -5.2839924412        4.3539277064        1.1657013519
 H         -5.4461172854        2.0412014714        2.3076148433
 H         -3.9197818707        2.9137174318        2.3393223101
 O         -2.8017951461        0.9608152773        1.9702552124
 C         -1.9559100346       -0.1106856869        1.7538875660
 O         -1.0368991916       -0.2110764411        2.5935045635
 H          1.3017920435       -1.2290690154        0.7568685842
 C          1.0268016937       -1.3372239565       -0.2824067649
 C         -0.2471898050       -1.7771113430       -0.6166876795
 C         -0.5881492209       -1.8851302265       -1.9609118126
 C          0.3293879200       -1.5552695265       -2.9416163822
 C          1.5968979548       -1.1146998567       -2.6055680395
 C          1.9487955684       -1.0057480995       -1.2648506400
 N          3.2460424058       -0.6021063545       -0.9015017813
 S          3.4545919331        0.3438147046        0.4816889427
 O          3.4046000393       -0.5100991189        1.6411275132
 O          2.5434967969        1.4671113062        0.4562053475
 C          5.1313724340        0.8948990547        0.2234122066
 C          6.1631015139        0.0255331544        0.5242672029
 C          7.4685706352        0.4299657108        0.2955460303
 C          7.7199251853        1.6899938394       -0.2271653229
 C          6.6747512129        2.5524005718       -0.5217783879
 C          5.3663022928        2.1531873324       -0.2972764251
 H          4.5223496965        2.7917023290       -0.5039346080
 H          6.8730889342        3.5325360638       -0.9245586085
 H          8.7368987045        2.0029504475       -0.4033174026
 H          8.2835680533       -0.2369521561        0.5259908041
 H          5.9188864453       -0.9390093702        0.9376336361
 H          3.7620513911       -0.2169305699       -1.6816057222
 H          2.3109120117       -0.8577977136       -3.3735017832
 H          0.0518208212       -1.6369912688       -3.9817032563
 H         -1.5846639568       -2.1979560069       -2.2283755612
 C         -1.2244311043       -2.1044044495        0.4876503443
 H         -0.6542686829       -2.1534865782        1.4258996800
 C         -1.9076454288       -3.4402818077        0.2719354965
 C         -1.1202315441       -4.6957039401        0.4900863027
 C         -2.2000073392       -4.3102373149        1.4552624183
 H         -3.1166968434       -4.8805525011        1.4608929793
 H         -1.9077535569       -3.9440104595        2.4292092001
 H         -0.0941793897       -4.5897938245        0.8100519178
 H         -1.2931611966       -5.5336034522       -0.1673985360
 H         -2.6363043558       -3.4315906766       -0.5271213459
 O         -3.5683148555       -1.4588924383       -1.1957285293
