  62
        -98.92850570
 C         -2.4177675629       -0.0186986723        0.6181984813
 C         -3.4312972016       -0.7331277714       -0.0634720260
 C         -4.6383562488        0.0346397546       -0.4358070441
 C         -4.7137636512        1.3458510845       -0.1461345549
 C         -5.7830926389        2.3759728174       -0.4456282401
 C         -7.1811047184        1.9481140402       -0.8848443569
 C         -7.9915056455        1.2150828021        0.1834993895
 H         -8.2436561271        1.9241075962        0.9761039228
 H         -8.9259896063        0.8767662107       -0.2695143867
 C         -7.2960224463        0.0229968262        0.8360530889
 H         -6.4150615133        0.3662394834        1.3824012171
 H         -7.9839922058       -0.4037723524        1.5710710424
 C         -6.8832587427       -1.0958982972       -0.1183675622
 H         -7.7478523201       -1.4195285619       -0.7011030455
 H         -6.5546944080       -1.9427110992        0.4902642581
 C         -5.7386839739       -0.7526184842       -1.0877712543
 H         -6.1081574381       -0.2365596213       -1.9707038570
 H         -5.2871564223       -1.6913922634       -1.4218616479
 H         -7.1262742833        1.3561354887       -1.7936626037
 H         -7.7212012433        2.8649077075       -1.1368804272
 H         -5.8643498906        2.9894664865        0.4573277183
 H         -5.3604541892        3.0246786762       -1.2209575468
 O         -3.6945414998        1.9992085167        0.4867793479
 C         -2.5460314158        1.3452420606        0.8872606415
 O         -1.7214952021        2.0742606438        1.4755295116
 O         -3.3562993190       -1.9513056628       -0.3649172310
 C         -1.1222151948       -0.6525367073        1.0971034505
 C         -0.0692796592       -0.5967421688        0.0196101238
 C         -0.3250709592       -1.0673267723       -1.2643936134
 C          0.6556047370       -1.0122213356       -2.2380528473
 C          1.9036331534       -0.4848327257       -1.9565517071
 C          2.1689371894       -0.0101782601       -0.6791307054
 C          1.1845920434       -0.0744614863        0.3001125005
 H          1.3898199976        0.3069756696        1.2914550871
 N          3.4270876751        0.5474501450       -0.3907832953
 S          4.7872022957       -0.2650453294       -0.9803643011
 O          4.9840143599        0.1135493335       -2.3569764830
 O          4.6618975654       -1.6828346400       -0.7268377245
 C          6.0716974659        0.4406601410        0.0321513578
 C          6.6073474602        1.6623435253       -0.3289980272
 C          7.5890746614        2.2249941977        0.4709601955
 C          8.0153806994        1.5613103370        1.6119441719
 C          7.4688410623        0.3353749832        1.9606768244
 C          6.4857172053       -0.2326847753        1.1658090597
 H          6.0400086706       -1.1878778812        1.3932320192
 H          7.8044372777       -0.1792836099        2.8465920391
 H          8.7806812939        2.0007910793        2.2320383123
 H          8.0183880594        3.1766559287        0.2022271586
 H          6.2515284669        2.1368087852       -1.2285711748
 H          3.5308231813        0.7724902752        0.5892759759
 H          2.6759764735       -0.4400113577       -2.7074963394
 H          0.4467525887       -1.3845075066       -3.2300794592
 H         -1.2960738910       -1.4827500349       -1.4874963984
 H         -0.7803788848       -0.0086504665        1.9231921381
 C         -1.3147933082       -2.0505585128        1.6697245645
 C         -0.8093421336       -3.2976320477        1.0160542755
 C         -0.1445697040       -2.7844295298        2.2556299146
 H         -0.2796996605       -3.3227652928        3.1814369163
 H          0.8305936288       -2.3339184963        2.1431517639
 H         -1.4275544086       -4.1798601828        1.0809590591
 H         -0.2789392021       -3.2088658625        0.0810137294
 H         -2.2566219833       -2.1399060162        2.2013420237
