  62
        -98.93896612
 C         -1.9884979549       -1.3732754864       -0.4340196082
 C         -2.9859117690       -1.3414123594        0.5759451028
 C         -4.1729067273       -0.5272523691        0.3000281244
 C         -4.2708177323        0.1250898046       -0.8719453539
 C         -5.4252992694        0.9824103380       -1.3155348339
 C         -5.3658159046        2.4255781508       -0.7965929062
 C         -5.6648745251        2.5939534102        0.6937012088
 H         -5.8049499697        3.6618198836        0.8729657686
 H         -6.6059810245        2.0974492594        0.9321337620
 C         -4.5579875167        2.0786731359        1.6244245137
 H         -3.6312485187        1.9583899242        1.0578809544
 H         -4.3615878159        2.8204496608        2.4019152751
 C         -4.8828297301        0.7605139336        2.3274512739
 H         -4.0166068088        0.4710320240        2.9277891349
 H         -5.7292503831        0.9045114548        3.0025974780
 C         -5.2078183642       -0.3987712730        1.3765726909
 H         -5.2038307963       -1.3268734436        1.9532279486
 H         -6.1964693036       -0.2615883587        0.9391142846
 H         -4.3778494090        2.8359579384       -1.0192042574
 H         -6.1004287900        3.0050475830       -1.3606944426
 H         -5.3923441974        1.0073116912       -2.4069342571
 H         -6.3638090576        0.5213326614       -1.0062370486
 O         -3.3056296750        0.0566576822       -1.8245633358
 C         -2.1303259423       -0.6684229341       -1.6301837457
 O         -1.3466476471       -0.5991999362       -2.5931680653
 O         -2.8879390796       -1.9789195108        1.6584911590
 C         -0.7519103871       -2.1941316390       -0.1125595398
 C          0.2305668865       -1.3705930083        0.6818727352
 C          0.7396131267       -1.8533815150        1.8829560533
 C          1.6191516737       -1.0968555721        2.6361797405
 C          2.0264305136        0.1469903269        2.1898981789
 C          1.5286583264        0.6369398040        0.9881358419
 C          0.6266140055       -0.1123575989        0.2466547647
 H          0.2399441672        0.2898493119       -0.6779673608
 N          1.9536042854        1.8884477633        0.4830212494
 S          3.0131826654        1.7942056946       -0.8140320271
 O          3.4284338551        3.1543164731       -1.0761722710
 O          2.3912162088        1.0798082825       -1.8959209802
 C          4.3900070906        0.8576690380       -0.1690830097
 C          4.3091061340       -0.5207857775       -0.1527916972
 C          5.3404118583       -1.2444584104        0.4249356243
 C          6.4270666024       -0.5815860249        0.9747148331
 C          6.4947547277        0.8032586839        0.9481612110
 C          5.4643416303        1.5327541374        0.3769032269
 H          5.4751350270        2.6098516551        0.3305038370
 H          7.3429693922        1.3158946836        1.3724624969
 H          7.2266457659       -1.1488130813        1.4243222557
 H          5.2878974991       -2.3210427434        0.4439324827
 H          3.4524735293       -1.0021558953       -0.5964635787
 H          2.3619445662        2.4858082400        1.1900350503
 H          2.7190060549        0.7408853348        2.7675771218
 H          1.9957562476       -1.4808197682        3.5714617673
 H          0.4214485575       -2.8238334166        2.2338827985
 H         -1.1148439024       -2.9910850208        0.5573721016
 C         -0.1202455209       -2.8843371989       -1.3106925957
 C          1.0567057185       -2.3505545441       -2.0638055437
 C          1.2216660829       -3.5435478573       -1.1735676176
 H          1.3728634888       -4.5098783969       -1.6301336106
 H          1.7474506308       -3.4055319697       -0.2404038988
 H          1.0627280749       -2.4934721773       -3.1340440797
 H          1.4739899132       -1.3992743009       -1.7725956298
 H         -0.8645841549       -3.4063716896       -1.9043835212
