  62
        -98.92985574
 C         -2.4389265428       -1.0239098781        0.5836177864
 C         -2.5440180429        0.2625701663        1.1682569671
 C         -3.8178683958        0.9802095851        0.9880225990
 C         -4.8066391544        0.3825623776        0.3011701466
 C         -6.1611843797        0.9404100602       -0.0395768587
 C         -6.1411884272        1.6169876170       -1.4207187344
 C         -5.7288539032        3.0882996490       -1.4115091893
 H         -5.6344445393        3.4061734890       -2.4523214804
 H         -6.5256168691        3.6816956706       -0.9582888134
 C         -4.4173652165        3.3950220508       -0.6838290590
 H         -3.6679780488        2.6434458652       -0.9400551162
 H         -4.0475432131        4.3553241648       -1.0486038614
 C         -4.5769731609        3.4714734163        0.8418991949
 H         -5.6376931184        3.5035821769        1.0896706625
 H         -4.1454207469        4.4066782398        1.2048754135
 C         -3.8976480893        2.3403211231        1.6264160562
 H         -2.8563098500        2.6116024825        1.8285584621
 H         -4.3857386843        2.2389003872        2.6019142742
 H         -5.4627850887        1.0485928603       -2.0619818330
 H         -7.1391150172        1.5486571736       -1.8583460344
 H         -6.8442307625        0.0894199393       -0.0794886443
 H         -6.5007745709        1.6263151586        0.7306554381
 O         -4.6688971962       -0.8567369928       -0.2409073712
 C         -3.4958209355       -1.5897234077       -0.1310524814
 O         -3.5446846367       -2.6940814065       -0.7008082135
 H          1.4530244032       -0.9595759435        0.9307193440
 C          1.1316747901       -1.1044675515       -0.0897768517
 C         -0.1713202657       -1.4989044104       -0.3573707859
 C         -0.5666988768       -1.6554078624       -1.6825426766
 C          0.3269227050       -1.4187137598       -2.7108557941
 C          1.6238730280       -1.0197199733       -2.4403021357
 C          2.0310196490       -0.8645200570       -1.1200992412
 N          3.3570237337       -0.5057484195       -0.8233574179
 S          3.6627458477        0.5118654961        0.4902332771
 O          3.5669246801       -0.2575772230        1.7046736271
 O          2.8375696029        1.6956489599        0.4038270113
 C          5.3690078268        0.9206602465        0.1724854943
 C          6.3471856598        0.0192038615        0.5477170612
 C          7.6727958187        0.3180723705        0.2762391596
 C          7.9966231648        1.5059323740       -0.3626289309
 C          7.0043243929        2.4018438363       -0.7310730707
 C          5.6762493560        2.1085395489       -0.4635335959
 H          4.8721163718        2.7785901077       -0.7225995797
 H          7.2593013191        3.3261782880       -1.2239571037
 H          9.0292398049        1.7365011035       -0.5718662786
 H          8.4473785096       -0.3743950619        0.5637545361
 H          6.0483173896       -0.8859566856        1.0499672479
 H          3.8639402940       -0.1957134865       -1.6419278826
 H          2.3178211768       -0.8325742802       -3.2456975410
 H          0.0082741125       -1.5423037713       -3.7350552809
 H         -1.5776818551       -1.9690962715       -1.8945908823
 C         -1.1248090965       -1.7572509512        0.7817257956
 H         -0.6828083406       -1.2997782885        1.6822499156
 C         -1.3030344741       -3.2417529100        1.0724045616
 C         -0.9041063497       -4.3269881565        0.1227003906
 C         -0.1028982627       -4.0929809367        1.3658149153
 H         -0.1629785928       -4.8128960094        2.1679024349
 H          0.8676649328       -3.6310990959        1.2578606318
 H         -1.5394235721       -5.1974842903        0.0673769465
 H         -0.4723599975       -4.0437518620       -0.8238869431
 H         -2.1900805207       -3.4300619334        1.6690729092
 O         -1.6053712323        0.7923158212        1.8257617641
