  62
        -98.94054086
 C         -2.3663610456       -0.7587668652       -0.1097667403
 C         -3.5506818130       -1.0637609942        0.6028953430
 C         -4.7977278026       -0.5662860493        0.0122171559
 C         -4.7608550419        0.1137685341       -1.1483845248
 C         -5.9498638978        0.6630545633       -1.8893401085
 C         -6.4200910146        2.0348463075       -1.3862847870
 C         -7.1283069504        2.0230613332       -0.0310189691
 H         -7.5922908681        3.0030990487        0.0964373168
 H         -7.9291870687        1.2833024548       -0.0472330711
 C         -6.2028409851        1.7565144287        1.1643377849
 H         -5.1649355341        1.9189065757        0.8641892374
 H         -6.4209427440        2.4715744828        1.9608083469
 C         -6.3309246371        0.3565920734        1.7651317031
 H         -7.3297238273        0.2290335753        2.1882780928
 H         -5.6065453884        0.2646945077        2.5785201038
 C         -6.0724164963       -0.7831024819        0.7708061678
 H         -5.9689017802       -1.7134528951        1.3345111381
 H         -6.9125856197       -0.8814241879        0.0839183828
 H         -5.5577186559        2.7039688450       -1.3414607146
 H         -7.1126952556        2.4344460054       -2.1305769238
 H         -5.6442842707        0.7651857386       -2.9327887935
 H         -6.7748072096       -0.0478974114       -1.8364107747
 O         -3.6018613323        0.3710964343       -1.8118699944
 C         -2.3771604259       -0.0377064142       -1.3034968849
 O         -1.3979273624        0.2927144393       -1.9991054625
 O         -3.5638263714       -1.7175465905        1.6804738096
 C         -1.0353455072       -1.2299108187        0.4450502319
 C         -0.1205429502       -0.0561581887        0.6931588615
 C         -0.6004213634        1.0291259316        1.4232588524
 C          0.2068494947        2.1187984396        1.6832325607
 C          1.5165578056        2.1444729881        1.2363004497
 C          2.0059484602        1.0672085220        0.5083455008
 C          1.1882391336       -0.0228332504        0.2409056668
 H          1.5960097110       -0.8423577795       -0.3263141439
 N          3.3226213131        1.0711580306        0.0218538009
 S          4.1609084546       -0.3909809207       -0.0609534762
 O          3.8203556768       -1.0616012513       -1.2902719150
 O          3.9626294513       -1.1455216092        1.1559674149
 C          5.8392570270        0.2069588524       -0.1483177829
 C          6.5997884853        0.2625981280        1.0044861329
 C          7.8933559403        0.7550767770        0.9313851304
 C          8.4007161094        1.1840942285       -0.2858261889
 C          7.6257925492        1.1213769364       -1.4345955162
 C          6.3322544426        0.6285436030       -1.3689068151
 H          5.6967687043        0.5518095105       -2.2358627335
 H          8.0246541495        1.4530310722       -2.3796580306
 H          9.4074537148        1.5671840485       -0.3404156443
 H          8.4995409378        0.8014413177        1.8216897515
 H          6.1663323737       -0.0904758389        1.9263573640
 H          3.8885945096        1.8097208108        0.4163596255
 H          2.1496179800        2.9941570502        1.4422337119
 H         -0.1825079591        2.9533722287        2.2469990560
 H         -1.6205839006        1.0045472714        1.7825021171
 H         -1.2694568062       -1.6885777625        1.4181764455
 C         -0.4307458719       -2.2875880459       -0.4535677262
 C          0.5141289805       -3.3048901215        0.1103984985
 C         -0.8667154473       -3.7130453785       -0.3044121079
 H         -0.9825879904       -4.3125845161       -1.1947480979
 H         -1.5888843963       -3.9318371070        0.4685648111
 H          1.3537064726       -3.6165131279       -0.4935088475
 H          0.7366728905       -3.2487251188        1.1655990164
 H         -0.2442336158       -1.9236723360       -1.4585819473
