  62
        -98.93806483
 C         -0.1392782648       -1.9648203887        0.0996245778
 C         -1.1244899594       -1.5586677977        1.0293850392
 C         -2.4584419613       -1.2763590871        0.4776098117
 C         -2.6503478957       -1.3766557541       -0.8506694037
 C         -3.9280668000       -1.0588190181       -1.5741632788
 C         -4.1104668396        0.4677738045       -1.6874501728
 C         -5.3174650835        1.0091880606       -0.9221440577
 H         -5.2373876322        2.0978146566       -0.9072368017
 H         -6.2278667554        0.7554439062       -1.4691749519
 C         -5.4758997374        0.4989241553        0.5135034470
 H         -5.9280345003       -0.4939571360        0.5027810702
 H         -6.1901885372        1.1589483293        1.0101551482
 C         -4.1909638984        0.4450715812        1.3498978440
 H         -3.4497740617        1.1429203298        0.9643264195
 H         -4.4346677157        0.7614834480        2.3661327737
 C         -3.5503641877       -0.9502713069        1.4598449034
 H         -3.0759019985       -1.0389695170        2.4417318679
 H         -4.3285065892       -1.7170562511        1.4024738354
 H         -4.2191212448        0.7431915388       -2.7373161659
 H         -3.1991209205        0.9480204568       -1.3260750856
 H         -3.8592077663       -1.5096421461       -2.5643289319
 H         -4.7673165129       -1.5069382227       -1.0464119603
 O         -1.6632205131       -1.7232817334       -1.7173858836
 C         -0.3939194883       -2.0532799921       -1.2684225260
 O          0.3960344268       -2.3987542272       -2.1666041500
 H          1.3433674762        0.2892044529        0.2869679391
 C          2.1937769172       -0.1927275357       -0.1768238571
 C          2.3105261861       -1.5768395731       -0.1172754698
 C          3.4133268945       -2.1769112503       -0.7109970487
 C          4.3636263179       -1.4102409744       -1.3617627871
 C          4.2473137124       -0.0343904438       -1.4129995981
 C          3.1539868216        0.5783344026       -0.8108128661
 N          3.0049106300        1.9731458972       -0.8513661728
 S          2.4263698117        2.7910447517        0.4853805737
 O          2.9476692645        4.1351223841        0.3408746769
 O          2.7620660102        2.1151171747        1.7163665969
 C          0.6624071639        2.8704813775        0.2694014080
 C         -0.1433374910        2.8650461525        1.3903496680
 C         -1.5067350721        3.0603814803        1.2387393737
 C         -2.0381615623        3.2541398833       -0.0270697009
 C         -1.2183744838        3.2368295783       -1.1452732556
 C          0.1469520052        3.0506244381       -0.9986767445
 H          0.8137073101        3.0415600987       -1.8448580958
 H         -1.6376225864        3.3760723635       -2.1290041852
 H         -3.0977756540        3.4225909535       -0.1420855594
 H         -2.1449791936        3.0645805991        2.1079929816
 H          0.3099482047        2.7054531946        2.3559048946
 H          3.7659590172        2.4694867275       -1.2918928970
 H          4.9915266994        0.5650150499       -1.9152072998
 H          5.2099852396       -1.8908334854       -1.8285980440
 H          3.5266457088       -3.2475078736       -0.6727863850
 C          1.2380338939       -2.3523817769        0.6049528249
 H          1.2592656691       -2.0556347476        1.6644995583
 C          1.4100630384       -3.8554688546        0.5182764072
 C          2.3226816702       -4.5694926213        1.4688980680
 C          0.8374576315       -4.7129665096        1.6051919788
 H          0.3813185445       -5.6533137752        1.3340451734
 H          0.3450551421       -4.2093570739        2.4241931529
 H          2.8866279219       -5.4157200205        1.1064512352
 H          2.8438336281       -3.9733276312        2.2027321343
 H          1.3365429431       -4.2240458563       -0.4991663730
 O         -0.9018092324       -1.4489236838        2.2661968700
