  62
        -98.94027096
 C         -1.9959622723       -0.0665910082       -0.4624750704
 C         -2.8174227333        0.5289800291        0.5268197831
 C         -4.1409930605       -0.0871886748        0.7071571554
 C         -4.4828477815       -1.1771595109       -0.0014074496
 C         -5.7829441610       -1.9281808610        0.0956116324
 C         -6.9156614997       -1.3253983717       -0.7467311595
 C         -7.5015461461       -0.0186710430       -0.2100975229
 H         -8.4203450187        0.1727273733       -0.7680937300
 H         -7.7780610692       -0.1488980737        0.8366513183
 C         -6.5753858395        1.1971844597       -0.3528281777
 H         -5.7913378179        0.9736164079       -1.0800620481
 H         -7.1439077641        2.0433013794       -0.7454892398
 C         -5.9244346846        1.6550191940        0.9524434019
 H         -6.6950336201        2.0061071553        1.6422846597
 H         -5.2638872952        2.4966324032        0.7291767649
 C         -5.0938078553        0.5744238854        1.6568715224
 H         -4.5024404750        1.0533483163        2.4409922204
 H         -5.7497485398       -0.1650580410        2.1155416314
 H         -6.5494806631       -1.1702006699       -1.7643305891
 H         -7.7173302650       -2.0662156891       -0.7921627983
 H         -5.5850226915       -2.9393368098       -0.2667668880
 H         -6.0956051445       -1.9884576683        1.1384912063
 O         -3.6448748163       -1.7505812838       -0.9064530177
 C         -2.4024987917       -1.2011843127       -1.1701948521
 O         -1.7537486692       -1.8044830865       -2.0498867587
 O         -2.4858544421        1.5153063434        1.2312026199
 C         -0.6143570026        0.4557847681       -0.8221684652
 C          0.4285368845       -0.1651508325        0.0699740941
 C          0.3398696510       -0.0695190985        1.4555457185
 C          1.3081125109       -0.6396339548        2.2616190621
 C          2.3837287603       -1.3110906350        1.7058870457
 C          2.4808112031       -1.4110662385        0.3250627529
 C          1.5072913663       -0.8385727080       -0.4833050002
 H          1.5811220758       -0.9324852001       -1.5584882702
 N          3.5949101102       -2.0662628770       -0.2418586727
 S          5.0805505781       -1.3620163508        0.0987609652
 O          5.9838460769       -1.8475263421       -0.9193565268
 O          5.4402145998       -1.6515914375        1.4629054339
 C          4.7780408730        0.3833790851       -0.1045120060
 C          4.7844737376        0.9039135475       -1.3835408115
 C          4.4494555894        2.2355525594       -1.5672149574
 C          4.1010655148        3.0160990167       -0.4753034424
 C          4.1009216457        2.4787464166        0.8022603881
 C          4.4419353325        1.1493142446        0.9935651414
 H          4.4565933812        0.6955962060        1.9706634473
 H          3.8294549519        3.0888856663        1.6485733619
 H          3.8239795513        4.0477392394       -0.6215703857
 H          4.4515235755        2.6579427441       -2.5593601851
 H          5.0619715615        0.2638705775       -2.2060440163
 H          3.5059938947       -2.2083187079       -1.2383185734
 H          3.1531918025       -1.7527004020        2.3185281349
 H          1.2261449494       -0.5597536610        3.3350625546
 H         -0.4935718908        0.4620719435        1.8889103562
 H         -0.4322637048        0.0918613940       -1.8455259457
 C         -0.5380344168        1.9773190816       -0.8594050481
 C          0.3551342741        2.7859718037        0.0290099746
 C          0.6842707117        2.6395029469       -1.4237272861
 H          0.5584748742        3.4893489447       -2.0769162034
 H          1.5164844446        2.0010979760       -1.6812993867
 H         -0.0241023880        3.7314694993        0.3848938916
 H          0.9755047431        2.2677844700        0.7429405977
 H         -1.4925431463        2.4256191548       -1.1128347115
