  62
        -98.94438398
 C         -2.6366923439       -1.3116607608        0.1204014977
 C         -2.5892619320       -0.2901001283       -0.8588421965
 C         -3.6496989561        0.7259773825       -0.7758071091
 C         -4.5864581189        0.6292909053        0.1848694035
 C         -5.6919359875        1.6185317824        0.4112475329
 C         -5.2686334346        2.7054603375        1.4089795639
 C         -3.9135494040        3.3390666482        1.0934857956
 H         -3.7339507721        4.1137928674        1.8420220319
 H         -3.1289255507        2.5883535826        1.2154413453
 C         -3.8109160623        3.9521182121       -0.3100976707
 H         -3.3320789186        4.9303533149       -0.2307359967
 H         -4.8092803665        4.1118718961       -0.7190948762
 C         -2.9831854043        3.1324759872       -1.3021622884
 H         -2.0122671044        2.8907174482       -0.8602985708
 H         -2.7931735700        3.7544827389       -2.1812909983
 C         -3.6284966044        1.8306715673       -1.7944770794
 H         -4.6357879935        2.0360980697       -2.1627873444
 H         -3.0264653812        1.4580857597       -2.6285991125
 H         -5.2138359753        2.2595142497        2.4046331408
 H         -6.0386495531        3.4787897186        1.4243953190
 H         -6.5537637023        1.0839625108        0.8141272438
 H         -5.9683604679        2.0704953480       -0.5392259865
 O         -4.6041749271       -0.3712024757        1.1016056948
 C         -3.6261460829       -1.3499941109        1.1057163255
 O         -3.7462651140       -2.1916119320        2.0180372778
 O         -1.7182338611       -0.2247701488       -1.7667197929
 C         -1.5834235278       -2.4079559882        0.1650043333
 C         -0.2596638555       -1.7761975303        0.5198855976
 C         -0.0130379517       -1.4291699007        1.8457651141
 C          1.1628672121       -0.7972231831        2.2021270308
 C          2.1145475869       -0.4900041057        1.2443286051
 C          1.8691244560       -0.8141814322       -0.0824088251
 C          0.6945812288       -1.4676187417       -0.4354500367
 H          0.5124425912       -1.7033969096       -1.4716654713
 N          2.8237550734       -0.5039925879       -1.0642174633
 S          3.5660555044        0.9993151630       -1.0315163079
 O          2.7179452332        2.0110364572       -0.4450886949
 O          4.0023071570        1.2327671076       -2.3911357096
 C          4.9994753302        0.7318402746       -0.0072333564
 C          5.8226595570       -0.3368401372       -0.3041713873
 C          6.9476181124       -0.5521241052        0.4755867737
 C          7.2316402883        0.3017937467        1.5310123393
 C          6.3979762940        1.3727383444        1.8137663342
 C          5.2700974119        1.5927406720        1.0381630187
 H          4.5898481622        2.4085940674        1.2251697017
 H          6.6202984559        2.0362063598        2.6340748852
 H          8.1076422581        0.1316330512        2.1368167615
 H          7.5980240632       -1.3841882603        0.2589426303
 H          5.5683243690       -0.9756236947       -1.1332656660
 H          2.5305697943       -0.7400334293       -2.0013728816
 H          3.0287214551        0.0130553537        1.5138738904
 H          1.3421272700       -0.5383151309        3.2346945786
 H         -0.7649614831       -1.6529366937        2.5903174881
 H         -1.8753949826       -3.0705058502        0.9906451591
 C         -1.5594996427       -3.2123689289       -1.1176789634
 C         -0.8598396311       -4.5371946202       -1.1395734311
 C         -2.3559310864       -4.4782304793       -1.1998411310
 H         -2.8457501707       -4.7180513065       -2.1317411357
 H         -2.9166538194       -4.7724769044       -0.3246388964
 H         -0.3206915910       -4.8222460540       -2.0300766101
 H         -0.4027094479       -4.8724567054       -0.2209853749
 H         -1.5171026374       -2.5987620980       -2.0091240872
