  62
        -98.94166438
 C         -2.0684486447       -1.5218711530        0.0572401875
 C         -2.3469031471       -0.6036969895       -0.9852310957
 C         -3.6783614098        0.0242472126       -0.9498110442
 C         -4.5364280620       -0.2859879076        0.0376261429
 C         -5.8957111579        0.3229107172        0.2206457050
 C         -5.8336164477        1.5621699908        1.1243547418
 C         -4.7456160032        2.5609602397        0.7296264243
 H         -4.8169356314        3.4078217050        1.4157060447
 H         -3.7661756520        2.1031362872        0.8879358879
 C         -4.8417010876        3.0657969175       -0.7169716273
 H         -5.8408945723        2.8753815406       -1.1103268367
 H         -4.6929037386        4.1477380703       -0.7204274049
 C         -3.8011394296        2.4706456215       -1.6674146505
 H         -2.8048404675        2.5787469872       -1.2306390812
 H         -3.8160243545        3.0514033946       -2.5937062364
 C         -4.0070315541        0.9984665330       -2.0464564529
 H         -5.0291103168        0.8501036975       -2.4004021616
 H         -3.3218089464        0.7688481886       -2.8677635932
 H         -6.8073505861        2.0548685473        1.1021640227
 H         -5.6414874761        1.2348954611        2.1487896286
 H         -6.3028297057        0.5901338097       -0.7526309290
 H         -6.5455445277       -0.4211742380        0.6843403225
 O         -4.2361364353       -1.1707212011        1.0217346156
 C         -3.0048233607       -1.8011364987        1.0580475489
 O         -2.8642051749       -2.5886107416        2.0149538613
 H          0.0412573923        0.2319958055       -0.4283258557
 C          0.5884064232       -0.1702608837        0.4113229089
 C          0.3031666192       -1.4545064408        0.8553020651
 C          1.0268382305       -1.9629629241        1.9272839087
 C          2.0046821156       -1.2003126757        2.5429287773
 C          2.2831437352        0.0802143680        2.1004889802
 C          1.5677490751        0.5958333556        1.0268291290
 N          1.8505937208        1.8911685011        0.5581091517
 S          3.4598641840        2.2817082069        0.3104090989
 O          4.0684952467        2.6315049248        1.5699443879
 O          3.4526174162        3.3184538324       -0.6969103290
 C          4.2014830613        0.7893055288       -0.3259043652
 C          5.1603969666        0.1248902260        0.4111437816
 C          5.6856241891       -1.0579337151       -0.0843069242
 C          5.2424231731       -1.5546066041       -1.3000794954
 C          4.2822048624       -0.8725655569       -2.0316811844
 C          3.7534255848        0.3103471230       -1.5412437378
 H          3.0061662868        0.8651584242       -2.0868320065
 H          3.9367072976       -1.2610570103       -2.9761490266
 H          5.6457676192       -2.4788477172       -1.6822056800
 H          6.4341155399       -1.5893079772        0.4809423194
 H          5.4754280126        0.5458506457        1.3518949152
 H          1.2850571030        2.1642384404       -0.2324918106
 H          3.0347785018        0.6916032837        2.5728386536
 H          2.5550714595       -1.6060864754        3.3777650658
 H          0.8082945129       -2.9579114302        2.2864486193
 C         -0.7553854482       -2.2813177157        0.1719691572
 H         -0.9801649506       -3.1363709298        0.8282381092
 C         -0.2905728740       -2.8514541092       -1.1631971805
 C          0.9044324893       -2.3546063113       -1.9139178856
 C          0.9550684699       -3.6851401129       -1.2295262188
 H          0.9453487218       -4.5820559575       -1.8298228614
 H          1.5487680110       -3.7583110516       -0.3308571158
 H          1.4759187769       -1.5445664949       -1.4894096800
 H          0.8356439735       -2.3222136513       -2.9905235739
 H         -1.1295802258       -3.1839537796       -1.7665894702
 O         -1.5418568288       -0.3034405200       -1.9051400649
