  62
        -98.94995558
 C         -2.0470408804       -0.7544465482       -0.2155636767
 C         -2.6649045272        0.2350211245        0.5850449078
 C         -2.6559288951        1.6002089046        0.0438622504
 C         -2.0798439677        1.8316977731       -1.1494916545
 C         -1.9883161811        3.1735462474       -1.8154991902
 C         -0.6796002353        3.8944075151       -1.4677235975
 C         -0.3720970570        3.9409124937        0.0292157519
 H         -0.1414819120        2.9349354191        0.3879909455
 H          0.5390222046        4.5313427569        0.1548335097
 C         -1.4896202144        4.5433232628        0.8923485596
 H         -1.0368934727        5.2176913857        1.6224468049
 H         -2.1611903877        5.1389678468        0.2720963856
 C         -2.3018771734        3.5163750372        1.6842552043
 H         -2.8731637264        4.0496254257        2.4493964241
 H         -1.6168799049        2.8365884749        2.1989115292
 C         -3.2968135741        2.6779816490        0.8709107031
 H         -3.9087361114        3.3340749027        0.2477814135
 H         -3.9547996539        2.1629040275        1.5772602025
 H         -0.7354844041        4.9122254599       -1.8594886902
 H          0.1453214844        3.3813361313       -1.9676525777
 H         -2.0303351691        3.0209960437       -2.8956341024
 H         -2.8396141276        3.7796491763       -1.5113054484
 O         -1.4910516949        0.8576418797       -1.8880269019
 C         -1.4377447526       -0.4519569616       -1.4318063440
 O         -0.8347795994       -1.2336326393       -2.1922208568
 O         -3.2067225472       -0.0159231289        1.6964138509
 C         -1.9718075957       -2.1821269648        0.2965878995
 C         -0.5245928070       -2.5633106450        0.4939752839
 C          0.0356205712       -3.7466410843        0.0311066814
 C          1.3807508688       -4.0079568549        0.2300045212
 C          2.1938253869       -3.0957095540        0.8771731301
 C          1.6398924455       -1.9135555626        1.3558928382
 C          0.2881610609       -1.6685916175        1.1796175093
 H         -0.1328601215       -0.7487972717        1.5586732575
 N          2.4276874383       -0.9572845004        2.0273554291
 S          2.4616796769        0.6120863147        1.4457882615
 O          3.4444367537        1.2875567369        2.2647231285
 O          1.1349446487        1.1692609083        1.4453835336
 C          3.0810605960        0.4557551107       -0.2180668790
 C          2.2123207314        0.0719139985       -1.2188367451
 C          2.7067595653       -0.1251087100       -2.4983668957
 C          4.0558560380        0.0654775660       -2.7541534123
 C          4.9168992676        0.4536335785       -1.7380136051
 C          4.4288909134        0.6455512756       -0.4557123717
 H          5.0596393087        0.9490526208        0.3642488876
 H          5.9651822239        0.6030482378       -1.9408829834
 H          4.4362179691       -0.0897596798       -3.7514358877
 H          2.0240096943       -0.4319385267       -3.2750468165
 H          1.1669561262       -0.0712066741       -0.9961506823
 H          3.3716077532       -1.2658886631        2.2153383419
 H          3.2459115225       -3.2939750407        1.0155908449
 H          1.8045516144       -4.9299373762       -0.1376331012
 H         -0.5784929447       -4.4616382093       -0.4910227953
 H         -2.4584776972       -2.1642171805        1.2834171759
 C         -2.7349703940       -3.1249740783       -0.6087801805
 C         -3.3385722737       -4.3792655215       -0.0531411314
 C         -4.2208116161       -3.2352855646       -0.4505261272
 H         -4.8279482074       -3.3329435222       -1.3378936516
 H         -4.6810022438       -2.6461315414        0.3294806501
 H         -3.3443380549       -5.2659862751       -0.6687873888
 H         -3.2060961225       -4.5733515694        1.0005248795
 H         -2.3368732970       -3.1482981571       -1.6167585477
