  62
        -98.94118270
 C         -1.8988096355       -0.9125697339        0.2452600351
 C         -2.3193189808        0.0694768105        1.1759760104
 C         -2.5466576854        1.4152819124        0.6407018666
 C         -2.2847610788        1.6682970394       -0.6540825093
 C         -2.4231196296        2.9998983714       -1.3416722096
 C         -3.8468025676        3.3138614969       -1.8221236173
 C         -4.8464615260        3.6541405706       -0.7159989317
 H         -4.4318681493        4.4394277259       -0.0833246765
 H         -5.7353739442        4.0608623450       -1.2019896802
 C         -5.2619147594        2.4577477651        0.1513810482
 H         -4.9986113206        1.5291141039       -0.3603712801
 H         -6.3467924481        2.4577911013        0.2774466879
 C         -4.6435217290        2.4433687780        1.5494502159
 H         -4.9759070920        1.5375586808        2.0629509823
 H         -5.0021387675        3.3039422882        2.1182016546
 C         -3.1089902303        2.4567544169        1.5605935513
 H         -2.7374218264        3.4445985828        1.2878426531
 H         -2.7678139863        2.2229284001        2.5723025676
 H         -3.7798957835        4.1692167397       -2.4982551225
 H         -4.2155753469        2.4621675090       -2.3982536522
 H         -2.0777094201        3.7907070856       -0.6747234390
 H         -1.7614526685        2.9670533545       -2.2101374650
 O         -1.8305920692        0.7133228311       -1.5065372856
 C         -1.6223942657       -0.5929700583       -1.0858026383
 O         -1.2088165297       -1.3489176820       -1.9851898215
 O         -2.4903843643       -0.1679784654        2.4031151371
 C         -1.6104292141       -2.3072005273        0.7736067680
 C         -0.2456673220       -2.7411001157        0.3004390348
 C          0.0088461254       -3.9303913106       -0.3680869595
 C          1.2886664893       -4.2223995943       -0.8084281801
 C          2.3292033817       -3.3354201468       -0.6079682548
 C          2.0857069881       -2.1461629717        0.0715183751
 C          0.8130955247       -1.8728984369        0.5395456383
 H          0.6324155696       -0.9436176414        1.0624633712
 N          3.1218278479       -1.2242338807        0.3095324926
 S          2.7359425427        0.4198461987        0.3238065703
 O          2.2274429942        0.7626611036        1.6298646146
 O          1.8959973704        0.7606701692       -0.8024804200
 C          4.3628706879        1.1219104726        0.1179082289
 C          4.7816404509        1.5026189328       -1.1429405654
 C          6.0599476898        2.0156808913       -1.2986175085
 C          6.8943291680        2.1351111586       -0.1973539897
 C          6.4597270811        1.7494498300        1.0621703599
 C          5.1824952496        1.2368173834        1.2248907662
 H          4.7963470462        0.9321789551        2.1835470778
 H          7.1099013327        1.8465875052        1.9165148074
 H          7.8884838958        2.5343618891       -0.3213309598
 H          6.3985782815        2.3191209518       -2.2761251754
 H          4.0939233997        1.3982763164       -1.9671370028
 H          3.9387438057       -1.4035751324       -0.2589582198
 H          3.3196491270       -3.5537583313       -0.9774258863
 H          1.4728716464       -5.1463733033       -1.3354495164
 H         -0.7975857454       -4.6153555754       -0.5720120998
 H         -1.5602375068       -2.1743047641        1.8684850268
 C         -2.7065201802       -3.3286097859        0.5121753294
 C         -4.1238745497       -2.8973644054        0.2849860624
 C         -3.3358855093       -3.5010472591       -0.8365752157
 H         -3.5899401155       -4.5004895141       -1.1583395328
 H         -2.9911673526       -2.8584808798       -1.6311392585
 H         -4.9155049411       -3.4789242313        0.7331451276
 H         -4.3233924730       -1.8357507986        0.2558984851
 H         -2.5707734002       -4.2284509641        1.1044275838
