  62
        -98.93296325
 C         -2.0445897395       -1.1298680092        0.2203530187
 C         -2.5053245892       -0.1042834294        1.0787504692
 C         -2.7880131687        1.2075625009        0.4686308097
 C         -2.5730977888        1.3702478314       -0.8488532002
 C         -2.7676026884        2.6038120418       -1.6944855397
 C         -4.0507217181        3.4140595121       -1.4534244393
 C         -3.8010825076        4.7615734518       -0.7740684788
 H         -2.8900262675        5.1959852516       -1.1906684387
 H         -4.6259520274        5.4342750322       -1.0189073685
 C         -3.6845472675        4.7096321811        0.7482119312
 H         -4.6688000976        4.5156309713        1.1798157712
 H         -3.3682014072        5.6978810609        1.0897329116
 C         -2.7068229779        3.6672793406        1.2952218907
 H         -1.7996682079        3.6335330505        0.6916530606
 H         -2.4072147977        3.9820633600        2.2973315108
 C         -3.3098340683        2.2590981107        1.4097590702
 H         -3.1120274584        1.8557865102        2.4079540300
 H         -4.3986025783        2.3102350011        1.3150687902
 H         -4.7584188783        2.8224614921       -0.8749014195
 H         -4.5082081681        3.6068383927       -2.4251005992
 H         -1.8903943982        3.2440400115       -1.5689237995
 H         -2.7422348486        2.2447413122       -2.7260033999
 O         -2.0919261791        0.3651901015       -1.6335079807
 C         -1.7914215495       -0.8895676288       -1.1305065612
 O         -1.3347551599       -1.6767347686       -1.9805313516
 H          0.5044006805       -1.0257274604        1.0597487286
 C          0.7132595002       -1.9723635403        0.5802588682
 C         -0.3184885401       -2.8827932399        0.3835647079
 C         -0.0289009306       -4.0926490797       -0.2316748026
 C          1.2584666493       -4.3655507700       -0.6617911828
 C          2.2723853396       -3.4405554804       -0.5010889225
 C          1.9940505301       -2.2301041206        0.1255726780
 N          3.0058439404       -1.2729132710        0.3247783084
 S          2.5882777710        0.3618127492        0.2801322891
 O          2.0577114612        0.7393171388        1.5674187293
 O          1.7555307610        0.6504205799       -0.8664882408
 C          4.2072022712        1.0808117487        0.0697630993
 C          5.0080781413        1.2497994180        1.1835099093
 C          6.2831955315        1.7671839676        1.0193382194
 C          6.7343087315        2.1040665280       -0.2483368204
 C          5.9185798614        1.9308114387       -1.3564254405
 C          4.6425040812        1.4125423891       -1.1992810706
 H          3.9695826611        1.2664877296       -2.0293486606
 H          6.2702027014        2.1962178290       -2.3403722504
 H          7.7271064317        2.5063504377       -0.3735761103
 H          6.9190008816        1.9057018070        1.8787630395
 H          4.6097331413        0.9805968877        2.1477656092
 H          3.8273580203       -1.4548963010       -0.2361099817
 H          3.2692509695       -3.6460817406       -0.8605570126
 H          1.4697077590       -5.3057805099       -1.1483206132
 H         -0.8148074108       -4.8095489494       -0.4031908029
 C         -1.6957649500       -2.4716828796        0.8402774581
 H         -1.6437940798       -2.2641617201        1.9231366782
 C         -2.7515330903       -3.5507271992        0.6564829278
 C         -4.1906560702       -3.1918844786        0.4408477680
 C         -3.4012857005       -3.8194938884       -0.6665697123
 H         -3.6185822509       -4.8441272782       -0.9307805727
 H         -3.1024283503       -3.2054087582       -1.5012380121
 H         -4.9462333504       -3.7826596085        0.9365886778
 H         -4.4366510099       -2.1426599185        0.3624846884
 H         -2.5639760306       -4.4117713695        1.2907298174
 O         -2.6725066391       -0.2759285599        2.3180647191
