  62
        -98.94532908
 C          1.5481886882        1.0780175986        0.2483640417
 C          2.8754111068        1.2050517057        0.7302596025
 C          3.9381705468        0.7743662712       -0.1834687857
 C          3.6180794843        0.2981381246       -1.4002668429
 C          4.5882898456       -0.1677259916       -2.4518094227
 C          5.0463742614       -1.6220032060       -2.2761445360
 C          6.0126346499       -1.8637005994       -1.1157472482
 H          6.4185270175       -2.8694394990       -1.2416479861
 H          6.8464763763       -1.1646950183       -1.1876813600
 C          5.3709364408       -1.7615586798        0.2751393437
 H          4.2843558554       -1.8320906765        0.1815517245
 H          5.6930879759       -2.6069537140        0.8874625845
 C          5.7211754052       -0.4865280218        1.0426051578
 H          6.7916398659       -0.4718088327        1.2589732202
 H          5.1851136573       -0.5026794663        1.9948945961
 C          5.3519821373        0.8117899600        0.3130791403
 H          5.4336956115        1.6387404930        1.0226157590
 H          6.0410689326        0.9887246312       -0.5122937604
 H          4.1632137955       -2.2538321659       -2.1535631123
 H          5.5423886933       -1.9216022810       -3.2023402642
 H          4.0718224392       -0.0835440234       -3.4104098987
 H          5.4578941963        0.4899065648       -2.4660074752
 O          2.3334378786        0.2033575742       -1.8324419802
 C          1.2670545373        0.5639064534       -1.0180675684
 O          0.1525909282        0.3976344136       -1.5477570450
 O          3.1581090666        1.6610438598        1.8703996910
 C          0.4130181707        1.4648345212        1.1833214244
 C         -0.2311765534        0.1957814145        1.6867882407
 C          0.4529197270       -0.5841964090        2.6167419221
 C         -0.0909351685       -1.7660839404        3.0802930974
 C         -1.3206444569       -2.2020386071        2.6157405610
 C         -2.0076051733       -1.4361106823        1.6830356669
 C         -1.4666944234       -0.2381825303        1.2350309637
 H         -2.0116809692        0.3474736623        0.5170522837
 N         -3.2664804321       -1.8347392001        1.2002380323
 S         -3.5087063704       -1.8682677939       -0.4651888181
 O         -4.6501731353       -2.7455278746       -0.6346173252
 O         -2.3062526659       -2.2596717539       -1.1616667763
 C         -4.0027196292       -0.2101931240       -0.8807024429
 C         -5.2016695840        0.2465655181       -0.3687966413
 C         -5.6098034999        1.5359321454       -0.6686520007
 C         -4.8167793339        2.3402923451       -1.4736250327
 C         -3.6186711734        1.8635124876       -1.9828997580
 C         -3.2019308100        0.5741523808       -1.6871807265
 H         -2.2598675275        0.1823750586       -2.0401910181
 H         -2.9974015593        2.4889231604       -2.6047029769
 H         -5.1316907020        3.3457335936       -1.7054048846
 H         -6.5402277959        1.9108436677       -0.2737950355
 H         -5.7886383223       -0.4148657565        0.2463108043
 H         -3.6170340724       -2.6853066623        1.6187290116
 H         -1.7438568381       -3.1298520541        2.9708993207
 H          0.4475874815       -2.3587380093        3.8046651853
 H          1.4196120690       -0.2495674672        2.9669048590
 H          0.9008254264        1.9542254081        2.0382494586
 C         -0.5601402180        2.4358555952        0.5508566809
 C         -1.5511771908        3.1529928961        1.4168395176
 C         -0.4083813190        3.9043311799        0.8046742320
 H         -0.6136910946        4.5894414604       -0.0038769012
 H          0.3991990291        4.2201201422        1.4488792502
 H         -2.5450495942        3.3189202757        1.0298585734
 H         -1.5178254546        2.9564833197        2.4777187205
 H         -0.8803882317        2.1363966308       -0.4390206880
