  62
        -98.94067306
 C         -1.9492936788       -0.8498230812        0.7174109047
 C         -1.8726194444       -0.1871749773       -0.5332386961
 C         -2.1030143087        1.2630848771       -0.5018108413
 C         -2.2832665344        1.8909720978        0.6726581751
 C         -2.4920605790        3.3685093812        0.8677219505
 C         -3.9440829688        3.8274554656        0.6736091354
 C         -4.4375036882        3.8347077628       -0.7738358751
 H         -5.3836127995        4.3792686596       -0.7862240922
 H         -3.7324727534        4.3903186969       -1.3927613505
 C         -4.6630869448        2.4397630049       -1.3734462871
 H         -5.6234856636        2.4172292843       -1.8930434522
 H         -4.7162234811        1.7022139961       -0.5693184950
 C         -3.5950315857        2.0008462874       -2.3753329003
 H         -3.8333012884        0.9879130204       -2.7094171490
 H         -3.6183419845        2.6574632324       -3.2477009286
 C         -2.1683069398        1.9900202323       -1.8105887163
 H         -1.5182156857        1.4606211451       -2.5116189039
 H         -1.7976245910        3.0086434795       -1.6966142649
 H         -4.0179651749        4.8443892064        1.0657029089
 H         -4.5940273857        3.1901980858        1.2777165354
 H         -2.1932467146        3.5898296080        1.8948486183
 H         -1.8378185190        3.9198046897        0.1913682145
 O         -2.2755011670        1.2300854815        1.8623723746
 C         -2.1123135069       -0.1448486674        1.9111502883
 O         -2.1276107437       -0.6179316921        3.0671848599
 H          0.6600263602       -1.1948195136        1.0881121190
 C          0.6870216329       -1.9631048394        0.3270171877
 C         -0.4620319204       -2.6957566440        0.0540794774
 C         -0.4060962197       -3.6812757115       -0.9215149280
 C          0.7673559279       -3.9011279306       -1.6226792641
 C          1.8949157392       -3.1399030280       -1.3790138639
 C          1.8513087428       -2.1586668757       -0.3938719677
 N          2.9827352264       -1.3744424798       -0.1034739879
 S          2.7422033677        0.2213891520        0.3933701307
 O          2.4659728409        0.2277750655        1.8096875539
 O          1.7752861136        0.8825387956       -0.4535856107
 C          4.3734820177        0.8828212588        0.1030646418
 C          5.3538776207        0.6756271581        1.0549651534
 C          6.6317988826        1.1557287333        0.8160797507
 C          6.9072757374        1.8295524779       -0.3646291624
 C          5.9128691125        2.0315197908       -1.3099106747
 C          4.6327798141        1.5531171672       -1.0774810717
 H          3.8252558396        1.6930724189       -1.7783456462
 H          6.1285542338        2.5586382432       -2.2252716119
 H          7.9024959057        2.2024145012       -0.5480161661
 H          7.4063875324        1.0030445310        1.5501022062
 H          5.0887722694        0.1543546180        1.9600008736
 H          3.6914569861       -1.4322541573       -0.8224770364
 H          2.7998044228       -3.2959151894       -1.9464746608
 H          0.7967846161       -4.6639187545       -2.3860612739
 H         -1.2869599156       -4.2560661235       -1.1556745804
 C         -1.7010664455       -2.3445611406        0.8413826197
 H         -1.4734594348       -2.5040025893        1.9093188624
 C         -2.9034184564       -3.2183404716        0.5182765444
 C         -4.2990806224       -2.6889829717        0.6567333857
 C         -3.7479549615       -3.0023103305       -0.7000487723
 H         -4.1300112642       -3.8702369342       -1.2174869433
 H         -3.4801522372       -2.1859008709       -1.3511035403
 H         -4.4123716039       -1.6515861743        0.9376039557
 H         -5.0551467569       -3.3386430835        1.0715827641
 H         -2.7500923807       -4.2471614007        0.8295785977
 O         -1.6335816008       -0.7634866522       -1.6256090605
