  62
        -98.94540324
 C         -2.5937920537       -0.0609517928       -0.5317820487
 C         -2.5257478619       -0.7974123227        0.6754915869
 C         -2.0747320099       -2.1875098888        0.5494646045
 C         -1.7364232388       -2.6740995471       -0.6580207150
 C         -1.2053107776       -4.0532519776       -0.9387085158
 C          0.3029670836       -4.1860272148       -0.6822927812
 C          0.7111216549       -4.2542020627        0.7904689037
 H          0.0968418561       -4.9938560901        1.3057397048
 H          1.7430798830       -4.6097689196        0.8173989889
 C          0.6371881914       -2.9102559236        1.5287448664
 H          1.5361307335       -2.7825285591        2.1373214797
 H          0.6291627364       -2.0958765664        0.8002069359
 C         -0.5596524997       -2.7616920447        2.4684293728
 H         -0.4600482688       -3.4626734777        3.3010264073
 H         -0.5495092865       -1.7472627281        2.8754660433
 C         -1.9238271511       -2.9898579019        1.8069104679
 H         -2.0697018850       -4.0496836436        1.5991245843
 H         -2.6982890125       -2.6580883262        2.5033655502
 H          0.6380332235       -5.1019513226       -1.1752006651
 H          0.8116763738       -3.3426090711       -1.1568865052
 H         -1.7469008491       -4.7886365471       -0.3427357021
 H         -1.3958353380       -4.2517148516       -1.9956243049
 O         -1.8493155601       -1.9445662189       -1.8007961374
 C         -2.2430753898       -0.6176872645       -1.7606158673
 O         -2.2538592618       -0.0492065640       -2.8743352940
 O         -2.8169220798       -0.3191738315        1.8031369488
 C         -2.8912933185        1.4272196046       -0.4866383949
 C         -1.8114548541        2.1009539845        0.3300814226
 C         -2.0504052054        3.1074683178        1.2554219788
 C         -1.0005302307        3.6526404138        1.9764277564
 C          0.2957928556        3.2062463162        1.7996314210
 C          0.5451520003        2.1968176293        0.8741140081
 C         -0.5029039311        1.6764101972        0.1364249089
 H         -0.2997058952        0.9095441383       -0.5963408178
 N          1.8373448507        1.6691765863        0.7139946885
 S          2.2556237667        0.8279681504       -0.6831701035
 O          2.0624318806        1.6664664797       -1.8473662768
 O          1.5920192422       -0.4505304038       -0.6915266817
 C          3.9960455801        0.5926229015       -0.3807556889
 C          4.9086472390        1.4814688909       -0.9164526221
 C          6.2568124403        1.2999157085       -0.6501648099
 C          6.6665484636        0.2398587841        0.1445487100
 C          5.7388483070       -0.6452206403        0.6737483584
 C          4.3896437422       -0.4696502091        0.4107006087
 H          3.6315017602       -1.1350870286        0.7904153114
 H          6.0610256670       -1.4702266354        1.2882671520
 H          7.7160792126        0.1003113130        0.3500020227
 H          6.9805499020        1.9838064585       -1.0632832613
 H          4.5440491750        2.2836976657       -1.5377426262
 H          2.5713344221        2.2949167164        1.0144895557
 H          1.1067019713        3.6223948965        2.3772483465
 H         -1.1978107796        4.4345513183        2.6941195049
 H         -3.0560743042        3.4595827146        1.4175277386
 H         -2.8087009650        1.7877139778       -1.5235856824
 C         -4.2923063890        1.6973574250        0.0182374246
 C         -5.0359271432        2.9162512610       -0.4366223562
 C         -5.4414948683        1.5621379576       -0.9333916244
 H         -6.3628884588        1.1317427599       -0.5713362899
 H         -5.2083346445        1.2989602265       -1.9552998485
 H         -5.6846336198        3.4169761759        0.2661290123
 H         -4.5358402768        3.5783734853       -1.1275494373
 H         -4.4396653569        1.3531261638        1.0350386443
