  62
        -98.94603427
 C         -1.9352987400       -1.2923235899        0.2386453002
 C         -1.7359677299        0.1006522001        0.0920688896
 C         -2.9014066899        0.9473155903        0.3846901492
 C         -4.0548878199        0.3710593605        0.7698311694
 C         -5.3315024699        1.1097319107        1.0470063391
 C         -6.1949156098        1.2214348802       -0.2173115410
 C         -5.4332864098        1.7273110996       -1.4424848512
 H         -4.6859786098        0.9839667594       -1.7297877209
 H         -6.1490412598        1.7963408292       -2.2645572013
 C         -4.7464586097        3.0861453996       -1.2466214118
 H         -4.9418946097        3.7066819792       -2.1237205821
 H         -5.1773141497        3.5981687500       -0.3854864321
 C         -3.2272284197        3.0106362096       -1.0838012118
 H         -2.8256642597        4.0236944895       -1.1718199223
 H         -2.8008216098        2.4183010792       -1.8974316215
 C         -2.7273548998        2.4335998102        0.2465076585
 H         -1.6494784698        2.6116310201        0.3010621984
 H         -3.2053930898        2.9565263006        1.0772930982
 H         -6.5987970399        0.2332277101       -0.4494508706
 H         -7.0321747198        1.8890202103       -0.0056671413
 H         -5.8879736199        0.5606305611        1.8084239193
 H         -5.0961824498        2.1018171009        1.4273889286
 O         -4.2037487000       -0.9713687994        0.9093496900
 C         -3.1536572900       -1.8353739196        0.6454743704
 O         -3.4219920401       -3.0419273395        0.8154434610
 H          1.8417306400       -1.8535988006       -0.8159508695
 C          1.6750799200       -1.7271019801        0.2401243104
 C          0.4106476800       -1.8842946798        0.7842057605
 C          0.2499756400       -1.7157086591        2.1579531704
 C          1.3233775900       -1.3814261888        2.9596614503
 C          2.5803474200       -1.1996669391        2.4082326902
 C          2.7539131100       -1.3737665198        1.0413494403
 N          4.0245199100       -1.2265028901        0.4555456902
 S          4.2530788101       -0.2046128707       -0.8503428702
 O          3.4221273301       -0.6163938712       -1.9511136600
 O          5.6808077801       -0.2310186509       -1.0838035502
 C          3.7838463802        1.4142699896       -0.2644740810
 C          2.4475578902        1.7334148797       -0.1289729811
 C          2.1121783003        2.9810194900        0.3749704083
 C          3.1038601503        3.8809637401        0.7313846979
 C          4.4413897503        3.5427165299        0.5892977681
 C          4.7859923602        2.2970706197        0.0916378686
 H          5.8116871402        1.9919428495       -0.0395731912
 H          5.2130660703        4.2432955500        0.8652300277
 H          2.8321796204        4.8497171603        1.1204148474
 H          1.0687815003        3.2312210301        0.4835356582
 H          1.6797112501        1.0289939996       -0.4072233708
 H          4.7670525600       -1.0805617699        1.1252104002
 H          3.4193561900       -0.9305844989        3.0319500201
 H          1.1808916800       -1.2530270083        4.0220871002
 H         -0.7345639301       -1.8482465189        2.5866255305
 C         -0.7929576101       -2.2491884801       -0.0500390793
 H         -1.1400860401       -3.2440603599        0.2658898311
 C         -0.5085904200       -2.2855236108       -1.5373313193
 C          0.0585217499       -3.5209714511       -2.1668226987
 C         -1.3673829801       -3.1365100211       -2.4215057289
 H         -1.6352144100       -2.7609366916       -3.3978292991
 H         -2.1470660401       -3.7144533409       -1.9463581887
 H          0.7747456099       -3.4067748015       -2.9668881288
 H          0.2476899998       -4.3676694608       -1.5241958384
 H         -0.1889598600       -1.3258972010       -1.9290826498
 O         -0.6418097099        0.6127537598       -0.2593448907
