  62
        -98.94121979
 C          1.8505185193        1.2400141608       -0.1157348003
 C          0.9375085993        1.6805391401       -1.1054062607
 C         -0.1510840217        2.5805792091       -0.6813275811
 C         -0.2088928126        2.9515115190        0.6109024689
 C         -1.2578586636        3.7895460680        1.2912215285
 C         -2.5478493330        2.9966501968        1.5577696279
 C         -3.0346290717        2.1436019064        0.3888871677
 H         -2.2560594410        1.4227492372        0.1330096580
 H         -3.8929881814        1.5638425357        0.7406852573
 C         -3.4634555319        2.9119022061       -0.8591838424
 H         -3.8520681610        2.1773605758       -1.5690191126
 H         -4.2808949126        3.5872971354       -0.5970482727
 C         -2.3715864424        3.7221881471       -1.5612586920
 H         -2.1681799234        4.6477133273       -1.0295422018
 H         -2.7610467222        4.0074027768       -2.5428621921
 C         -1.0746118216        2.9606128583       -1.8138247815
 H         -0.4607896518        3.5405229989       -2.5138544412
 H         -1.3092008405        2.0273833081       -2.3364767216
 H         -3.3298860837        3.6971373961        1.8570649376
 H         -2.3580518127        2.3171840570        2.3934494180
 H         -0.8387724143        4.1005448883        2.2509316587
 H         -1.4626905942        4.6847089078        0.7113474785
 O          0.7167345274        2.5443395197        1.5219211193
 C          1.7324780483        1.6560218007        1.2114092696
 O          2.4420370982        1.3496781313        2.1899024599
 O          1.0150795801        1.3164295602       -2.3113299307
 C          2.8742037604        0.2113635818       -0.5610808700
 C          2.2978163116       -1.1845846988       -0.4540766003
 C          2.6237880128       -2.1691943584       -1.3805966602
 C          2.0576379739       -3.4284690989       -1.2986322505
 C          1.1238219038       -3.7194779798       -0.3191639609
 C          0.7894816525       -2.7422920101        0.6097073291
 C          1.4050815114       -1.5000546596        0.5582869094
 H          1.1462452105       -0.7639762399        1.3033605893
 N         -0.1958796977       -2.9648630611        1.5922102986
 S         -1.4867394487       -1.8926341422        1.6294000382
 O         -1.0494367800       -0.5907219119        2.0585641784
 O         -2.4767097984       -2.5436929531        2.4602941977
 C         -2.0592598580       -1.8398933627       -0.0586317921
 C         -3.0687724371       -2.6978512035       -0.4500707125
 C         -3.4617436365       -2.7099414638       -1.7786010227
 C         -2.8305017769       -1.8805892832       -2.6938665924
 C         -1.8157961578       -1.0287074323       -2.2865803419
 C         -1.4283850084       -1.0027956621       -0.9564420618
 H         -0.6439170491       -0.3453459514       -0.6154613314
 H         -1.3065113781       -0.3858440719       -2.9881010317
 H         -3.1290072364       -1.8962593535       -3.7301520725
 H         -4.2530251158       -3.3690403545       -2.0975633731
 H         -3.5302862468       -3.3254866240        0.2950874372
 H         -0.5442865068       -3.9134808614        1.6152300385
 H          0.6532001546       -4.6898295002       -0.2758825411
 H          2.3232886949       -4.1841214587       -2.0216202004
 H          3.3142170030       -1.9380718378       -2.1771590599
 H          3.0494188506        0.4109406120       -1.6280695299
 C          4.2029288100        0.2843896029        0.1634785806
 C          5.4554912607       -0.1398784159       -0.5410864489
 C          5.2135955093        1.3100961338       -0.2499972789
 H          5.7956765285        1.7936600643        0.5196530313
 H          4.9556651590        1.9598546537       -1.0736548190
 H          6.2113673909       -0.6596304253        0.0269839414
 H          5.3737783914       -0.4653146060       -1.5667181390
 H          4.1225364998        0.0698669828        1.2214227006
