  62
        -98.93960191
 C         -2.4202222208       -1.2731944097        0.0266908710
 C         -3.0418520906       -0.4299993991        0.9756190506
 C         -3.7403183504        0.7552949508        0.4514866400
 C         -3.7285360603        0.9966033501       -0.8730614001
 C         -4.3814056600        2.0949876499       -1.6856323007
 C         -4.8561101498        3.3838502003       -1.0185090513
 C         -3.7443309296        4.2467615903       -0.4238126117
 H         -3.1305484695        4.6386984598       -1.2388849519
 H         -4.2074758394        5.0965742807        0.0824812279
 C         -2.8105562898        3.5377989206        0.5546637287
 H         -2.2361950999        2.7727724702        0.0259885891
 H         -2.0903308996        4.2742123306        0.9228726583
 C         -3.4924572999        2.9046900713        1.7670478490
 H         -4.1089354998        3.6510993817        2.2712719586
 H         -2.7051643900        2.5981423815        2.4613649991
 C         -4.3585240402        1.6657314314        1.4728686695
 H         -5.3654933401        1.9470119015        1.1745541894
 H         -4.4387906503        1.0840566019        2.3957210498
 H         -5.6078846098        3.1660833608       -0.2657384712
 H         -5.3481457396        3.9722302400       -1.7976868116
 H         -3.6625649400        2.3438297393       -2.4727735008
 H         -5.2382103101        1.6293217998       -2.1852065505
 O         -3.0983106805        0.1625148895       -1.7502788497
 C         -2.4154071307       -0.9693108604       -1.3336105791
 O         -1.8663050008       -1.6020567110       -2.2542757388
 O         -3.0141212307       -0.6547912585        2.2168066307
 C         -1.6515843511       -2.4890726297        0.5159255016
 C         -0.1824196810       -2.2600024401        0.2563909615
 C          0.6155093288       -3.1046728706       -0.5021001080
 C          1.9434780789       -2.7879428810       -0.7353707682
 C          2.5033896191       -1.6355886709       -0.2156886087
 C          1.7150243893       -0.7871493804        0.5516175109
 C          0.3880925592       -1.1073607700        0.7846575110
 H         -0.2278909507       -0.4421586796        1.3779868607
 N          2.2753715395        0.3865270898        1.0930221503
 S          2.9955112998        1.4545372291        0.0118701798
 O          2.9193201201        2.7499762294        0.6524591992
 O          2.4092826098        1.3531857086       -1.3051446702
 C          4.6950063397        0.9258453087       -0.0257334499
 C          5.3867251996        0.8795506391        1.1690248001
 C          6.7109759695        0.4719011988        1.1596041404
 C          7.3182730495        0.1226734581       -0.0376095295
 C          6.6110661095        0.1780042677       -1.2288855495
 C          5.2853107696        0.5837629280       -1.2263774097
 H          4.6930316797        0.6360253177       -2.1262003598
 H          7.0847081495       -0.0933368629       -2.1586596794
 H          8.3490023894       -0.1948437221       -0.0424242493
 H          7.2641458195        0.4273106592        2.0838425204
 H          4.8777335097        1.1625992297        2.0751599200
 H          1.6374649796        0.8871785302        1.6959948601
 H          3.5345102592       -1.3836473412       -0.4027619688
 H          2.5505261988       -3.4484673615       -1.3354539578
 H          0.1951523386       -4.0022666808       -0.9243196776
 H         -1.8056265811       -2.5119221691        1.6047503216
 C         -2.1946460013       -3.7676332398       -0.0819776478
 C         -1.9793313416       -5.0712007695        0.6255231729
 C         -3.3438715215       -4.4533388593        0.5919815925
 H         -4.1037726016       -4.9094054094       -0.0245187473
 H         -3.7276333314       -4.0072213287        1.4979235823
 H         -1.8034480018       -5.9565432999        0.0337916733
 H         -1.4358995117       -5.0481921692        1.5578820429
 H         -2.1831273113       -3.7619815004       -1.1655948978
