  62
        -98.94103050
 C         -2.5712822092       -0.2012949343        0.4927998329
 C         -2.2045354530        0.3378697309       -0.7654387332
 C         -2.0197674251        1.7964291512       -0.8101616795
 C         -2.2055955765        2.5241856700        0.3044829676
 C         -2.0644016716        4.0160794432        0.3948825022
 C         -0.6538701415        4.4356708239        0.8273347598
 C          0.4687965046        3.7718440919        0.0297238456
 H          1.4102966586        4.2015882880        0.3806573123
 H          0.5032090113        2.7053797396        0.2645433970
 C          0.3652052104        3.9463216407       -1.4916836400
 H         -0.2869941972        4.7885276092       -1.7280734950
 H          1.3577315108        4.1840107335       -1.8798591918
 C         -0.1174675992        2.6986945783       -2.2350913202
 H          0.4317608373        1.8273461869       -1.8682549846
 H          0.1158984934        2.8198083821       -3.2965234134
 C         -1.6182645724        2.3982350710       -2.1266983097
 H         -2.1943764994        3.3030899885       -2.3334794456
 H         -1.8664904435        1.6501743515       -2.8853684995
 H         -0.5769640811        5.5210306192        0.7326236861
 H         -0.5219601423        4.1759069722        1.8805455429
 H         -2.3026534849        4.4525552884       -0.5734007507
 H         -2.7817941460        4.3801572614        1.1331763316
 O         -2.5385787412        1.9705886993        1.5003157348
 C         -2.6872878922        0.5996445699        1.6296790343
 O         -2.9296623724        0.2203508379        2.7953448794
 H         -0.1714685822       -1.0936357351        0.8982099845
 C         -0.3099775219       -1.9521915083        0.2554446397
 C         -1.5959879549       -2.4296271886        0.0286492095
 C         -1.7533024826       -3.5483421763       -0.7770074437
 C         -0.6479323842       -4.1582681626       -1.3474971216
 C          0.6237347128       -3.6560736562       -1.1512755683
 C          0.7900077167       -2.5255765197       -0.3554407089
 N          2.0610673045       -1.9449379911       -0.2090722920
 S          2.3132028449       -0.5683021156        0.7086765271
 O          2.1724415915       -0.8545309699        2.1227282295
 O          1.5026198639        0.4996804264        0.1846285066
 C          4.0277063955       -0.2714075827        0.3232170936
 C          4.3327598722        0.4091141315       -0.8401092060
 C          5.6633295972        0.6170964571       -1.1663926557
 C          6.6619654533        0.1421568561       -0.3290323663
 C          6.3409676974       -0.5364549335        0.8369014062
 C          5.0117019053       -0.7479044951        1.1683306254
 H          4.7147089474       -1.2600500966        2.0694573750
 H          7.1192573587       -0.9006514202        1.4879467099
 H          7.6968267229        0.3055874170       -0.5850543761
 H          5.9156415806        1.1475166381       -2.0703924980
 H          3.5219554886        0.7657064051       -1.4542764771
 H          2.8305560856       -2.5966714342       -0.1873081097
 H          1.4801312473       -4.1178691619       -1.6170803421
 H         -0.7835241332       -5.0311249069       -1.9681585339
 H         -2.7391934183       -3.9356061997       -0.9748381700
 C         -2.7342648314       -1.6981210486        0.6996556410
 H         -2.6248911424       -1.8446417378        1.7884947751
 C         -4.1074521467       -2.2377420583        0.3246578552
 C         -5.3009865240       -1.3348166869        0.2397030076
 C         -4.7362205400       -1.9486889828       -1.0041165912
 H         -5.2991888662       -2.7339424489       -1.4870928926
 H         -4.1843007353       -1.3198947867       -1.6843069324
 H         -5.1437496262       -0.2790446628        0.4084970251
 H         -6.2450845458       -1.7006027078        0.6151090081
 H         -4.2865710993       -3.2220367987        0.7463929992
 O         -2.0530568086       -0.3501275940       -1.8080109432
