  62
        -98.93309919
 C          1.8220854900        0.7254513036        0.4059828620
 C          2.2032765858       -0.5510743756       -0.0775901380
 C          3.6017456594       -0.7210922161       -0.5070983279
 C          4.4447176688        0.3245855425       -0.4238296975
 C          5.8999669158        0.4696277008       -0.8179450960
 C          6.7485298334       -0.7587437930       -1.1351672652
 C          7.0375908056       -1.6619826373        0.0634908308
 H          7.5545519123       -2.5539381540       -0.2971106141
 H          7.7161159799       -1.1348897049        0.7390585780
 C          5.8184216265       -2.0886400826        0.8772193966
 H          6.1701581494       -2.7125123239        1.7034925993
 H          5.3453742359       -1.2086763922        1.3180077475
 C          4.7656650136       -2.8853682962        0.1093537091
 H          4.0375684567       -3.2544812218        0.8365736420
 H          5.2330482847       -3.7507870686       -0.3644614085
 C          3.9905009139       -2.0986277518       -0.9614393030
 H          4.5439828726       -2.0528198555       -1.8963063427
 H          3.0549044440       -2.6295263170       -1.1595124589
 H          6.2984764950       -1.3281882123       -1.9429724994
 H          7.7075909405       -0.3870917047       -1.5063090217
 H          5.9047212405        1.1292745717       -1.6927799304
 H          6.3735682585        1.0326394345       -0.0072721239
 O          4.0316361338        1.5396762208        0.0378424564
 C          2.7304148436        1.7818750163        0.4614153110
 O          2.5454119849        2.9497596514        0.8468467036
 H         -2.0406762886       -0.0642792926        0.1803364368
 C         -1.7510707020        0.7673886198       -0.4425877299
 C         -0.5126669523        1.3633926790       -0.2561616222
 C         -0.1424216812        2.4128368137       -1.0903359470
 C         -1.0010349500        2.8532059982       -2.0813599540
 C         -2.2491594172        2.2773064062       -2.2420661165
 C         -2.6295077427        1.2293013853       -1.4125218200
 N         -3.8850815183        0.6210901863       -1.5411606694
 S         -4.7251813002        0.1651329648       -0.1640346673
 O         -6.1119238528        0.1424973798       -0.5759855877
 O         -4.4038996395        1.0187571611        0.9548294568
 C         -4.1873469672       -1.5020381752        0.1482129690
 C         -4.3333262619       -2.4334285327       -0.8606481259
 C         -3.9278421999       -3.7379026042       -0.6305038353
 C         -3.3871228095       -4.0871543758        0.5978734521
 C         -3.2510544676       -3.1412991926        1.6020226825
 C         -3.6556747433       -1.8347628451        1.3781439091
 H         -3.5627181126       -1.0677471184        2.1315225499
 H         -2.8287362984       -3.4138580819        2.5560175476
 H         -3.0684550296       -5.1023184521        0.7746412313
 H         -4.0313093391       -4.4773865865       -1.4082002734
 H         -4.7608663787       -2.1241638949       -1.7997875710
 H         -4.4908816308        1.0345411595       -2.2348600124
 H         -2.9237085897        2.6355267524       -3.0048948765
 H         -0.7013972397        3.6662350068       -2.7256513712
 H          0.8175298280        2.8859876709       -0.9476454650
 C          0.3809472369        0.8752004032        0.8548611947
 H          0.0581115614       -0.1493707139        1.1010597254
 C          0.2236187460        1.7085892096        2.1194462556
 C         -0.3058501564        3.1074757020        2.1293309432
 C         -1.1380343484        1.9921298818        2.6834685332
 H         -1.2724806378        1.9329208089        3.7533639416
 H         -2.0040466293        1.6835970808        2.1148790854
 H         -0.6023231443        3.5460446528        1.1895789559
 H          0.1501934916        3.8113659418        2.8086176436
 H          1.0078080758        1.4929122563        2.8389840825
 O          1.3995110468       -1.5197002112       -0.1473171971
