  62
        -98.93769878
 C         -1.8022572861       -0.9243757188       -0.1374074973
 C         -2.4074083697       -0.2592580673        0.9542631019
 C         -3.5181810829        0.6468933548        0.6272797265
 C         -3.8627014944        0.8204951730       -0.6619536651
 C         -5.0188792581        1.6465880230       -1.1496023934
 C         -6.3390928777        0.8775384101       -0.9399408055
 C         -7.2917406867        1.5217402051        0.0675027700
 H         -7.7709066908        2.3850415847       -0.3990323463
 H         -8.0731570035        0.7922251567        0.2907570047
 C         -6.6583567514        1.9913088416        1.3808011034
 H         -7.4766545847        2.1730321529        2.0808489581
 H         -6.1627744198        2.9511283792        1.2268750582
 C         -5.6615999794        1.0224619360        2.0298386036
 H         -5.8585197111       -0.0017013781        1.7123397131
 H         -5.8120380684        1.0548727950        3.1108675981
 C         -4.1807749778        1.3596778806        1.7738857170
 H         -4.0691850586        2.4403683369        1.6473125002
 H         -3.6000078381        1.0712173705        2.6551868293
 H         -6.0964169382       -0.1366700281       -0.6159138233
 H         -6.8613754340        0.7853827034       -1.8933740766
 H         -4.8555427825        1.8399956137       -2.2100314368
 H         -5.0412484376        2.5975080647       -0.6217052583
 O         -3.2318444209        0.1917882360       -1.6874823478
 C         -2.1893318051       -0.6951861434       -1.4576328172
 O         -1.7037183571       -1.1963745981       -2.4881170971
 O         -2.0291297461       -0.4101340459        2.1483084091
 C         -0.6619448045       -1.8894300359        0.1306489786
 C          0.6022555962       -1.4042086376       -0.5356239444
 C          1.4442219464       -2.2268514562       -1.2717098142
 C          2.5912714820       -1.7155190271       -1.8554010764
 C          2.9291055296       -0.3832760296       -1.7107237336
 C          2.1034121700        0.4444662948       -0.9593603150
 C          0.9576802672       -0.0701444104       -0.3736781609
 H          0.3156221763        0.5785179209        0.2096762619
 N          2.4473466057        1.7960651081       -0.7876505314
 S          4.0387719113        2.1527913932       -0.4116306415
 O          3.9839107017        3.3908666244        0.3341587255
 O          4.8276886672        2.1821701818       -1.6180343650
 C          4.5868718372        0.8138004828        0.6331861945
 C          3.8947397080        0.5755979637        1.8041870491
 C          4.2869362272       -0.4793398066        2.6116950301
 C          5.3600271054       -1.2736506271        2.2370216444
 C          6.0484508450       -1.0178388707        1.0615997428
 C          5.6585220187        0.0343132258        0.2483607473
 H          6.1620134638        0.2659525841       -0.6760428614
 H          6.8836833651       -1.6357123348        0.7740868900
 H          5.6600913765       -2.0961711533        2.8667760753
 H          3.7511962700       -0.6792522387        3.5258850886
 H          3.0663729497        1.2125199078        2.0712919380
 H          1.8064017287        2.3120468875       -0.2036139025
 H          3.8087469050        0.0332711172       -2.1740078547
 H          3.2295991516       -2.3642433906       -2.4352241521
 H          1.1982425784       -3.2679339701       -1.3986193721
 H         -0.5044898921       -1.8571736821        1.2192361109
 C         -1.0548172664       -3.2980522311       -0.2616043604
 C         -0.4603067221       -4.4744072075        0.4518934661
 C         -1.8932105733       -4.1033897041        0.6839690370
 H         -2.6658750901       -4.7377068499        0.2760510277
 H         -2.1587708286       -3.6442303916        1.6251426486
 H         -0.2501385610       -5.3687618382       -0.1149187569
 H          0.2480162077       -4.2743293611        1.2413074502
 H         -1.2664357005       -3.3909857092       -1.3208578974
