  62
        -98.94575505
 C         -2.4816312859       -1.1310999151       -0.0468259585
 C         -3.0930477072       -0.2426880779        0.8695097376
 C         -3.5857815643        1.0195072901        0.3091603013
 C         -3.4393864492        1.2675950458       -1.0052953034
 C         -3.8936864894        2.5072519073       -1.7267549499
 C         -2.8906814083        3.6669662445       -1.6530470334
 C         -2.7952849591        4.3576909166       -0.2920148273
 H         -2.2255221445        5.2773104190       -0.4387948390
 H         -3.7938841131        4.6410600340        0.0423723838
 C         -2.1048381288        3.5213659328        0.7948262305
 H         -1.3811336269        4.1424900400        1.3286932835
 H         -1.5358583967        2.7133272471        0.3259660404
 C         -3.0551146139        2.9300038687        1.8370851828
 H         -2.4657276196        2.3310583040        2.5366140322
 H         -3.5254245159        3.7382814698        2.4012933534
 C         -4.1561813506        2.0334673749        1.2545818939
 H         -4.6288732931        1.4930629458        2.0783399808
 H         -4.9098095617        2.6405779816        0.7543338641
 H         -1.9036380686        3.2954952768       -1.9409261720
 H         -3.1953449732        4.4104215510       -2.3932294242
 H         -4.8571899981        2.8310942176       -1.3325753211
 H         -4.0203119482        2.2284735711       -2.7749320410
 O         -2.8531629260        0.3848611399       -1.8557280891
 C         -2.3226379058       -0.8127479422       -1.3961292317
 O         -1.7615539024       -1.4928381893       -2.2750418158
 O         -3.2117037194       -0.4888561825        2.1011627719
 C         -1.8778983098       -2.4219765116        0.4814471059
 C         -0.3768172227       -2.3186206222        0.3632843753
 C          0.4150235607       -3.2188162493       -0.3353900247
 C          1.7799711124       -3.0108304133       -0.4453770561
 C          2.3818702501       -1.9098593784        0.1357782369
 C          1.5988587871       -1.0081894006        0.8453495213
 C          0.2366764670       -1.2226548914        0.9599943038
 H         -0.3725427639       -0.5130259415        1.5076693730
 N          2.2044267442        0.1296159499        1.4287940044
 S          2.7450190167        1.2734425973        0.3131787522
 O          2.8020927761        2.5223109384        1.0420665682
 O          1.9342941320        1.2661159958       -0.8844155929
 C          4.3996610155        0.7333394498       -0.0553728839
 C          5.3260295673        0.7362451763        0.9694309027
 C          6.6167710375        0.3074748422        0.7047476907
 C          6.9569816163       -0.1126134785       -0.5727872745
 C          6.0157011403       -0.1067034591       -1.5909687049
 C          4.7219394286        0.3197529443       -1.3327240030
 H          3.9536749721        0.3351747458       -2.0894548814
 H          6.2816735292       -0.4340855507       -2.5832070359
 H          7.9618834393       -0.4471275926       -0.7766073010
 H          7.3515653835        0.3012024997        1.4935251623
 H          5.0187435196        1.0758244793        1.9443674866
 H          1.5968762614        0.5920071462        2.0921530570
 H          3.4429674772       -1.7428926439        0.0465535159
 H          2.3826655751       -3.7153721117       -0.9977483797
 H         -0.0380826879       -4.0748896486       -0.8072293178
 H         -2.1352214014       -2.4465224491        1.5507296816
 C         -2.4715630879       -3.6382230656       -0.1928415978
 C         -2.4286304735       -4.9676846857        0.4979744360
 C         -3.7285106334       -4.2350175706        0.3630100943
 H         -4.4672153420       -4.6136204395       -0.3272325342
 H         -4.1511724485       -3.7735224130        1.2435967359
 H         -2.2765861196       -5.8540898335       -0.0987150649
 H         -1.9686943348       -5.0077904717        1.4736907610
 H         -2.3639344419       -3.6147571867       -1.2708403665
