  62
        -98.93895954
 C          2.0517940694        1.0359209631       -0.2431733846
 C          2.3602774915        0.2505981164        0.8974487328
 C          2.5259619399       -1.1879247982        0.6798972035
 C          2.3256001514       -1.6976622983       -0.5482368440
 C          2.3892255541       -3.1533046192       -0.9254371855
 C          3.8064256069       -3.6684782867       -1.2120561722
 C          4.7001344412       -3.8313206283        0.0180532425
 H          4.1774278764       -4.4262700175        0.7674338797
 H          5.5778138936       -4.3990809838       -0.2968479676
 C          5.1650012572       -2.5078800794        0.6413791959
 H          5.0155351258       -1.6965612090       -0.0746595605
 H          6.2358709300       -2.5594272279        0.8499057969
 C          4.4648138036       -2.1439097392        1.9506085021
 H          4.8442418005       -1.1751115519        2.2848468018
 H          4.7089962182       -2.8843750250        2.7153868772
 C          2.9376621350       -2.0405974745        1.8417787345
 H          2.4959624805       -3.0335769345        1.7567661120
 H          2.5564499704       -1.5659338282        2.7492835657
 H          3.7061691098       -4.6433846753       -1.6946980189
 H          4.2845994326       -2.9921606133       -1.9242875933
 H          1.9321847470       -3.7511333503       -0.1359630659
 H          1.7891919254       -3.2623065000       -1.8318726893
 O          2.0148426684       -0.9198659720       -1.6167497689
 C          1.8649090632        0.4598493240       -1.5002018669
 O          1.5928720191        1.0171341005       -2.5797835107
 O          2.4922071319        0.7422722297        2.0517719831
 C          1.7956370341        2.5092484241        0.0252955024
 C          0.4153161562        2.6550024013        0.6192398962
 C          0.1748815073        3.4936829492        1.7009915015
 C         -1.0874919446        3.5710757443        2.2628505124
 C         -2.1230997353        2.7927812445        1.7784158488
 C         -1.8919032191        1.9515796296        0.6956606114
 C         -0.6371195684        1.9092761358        0.1087048253
 H         -0.4774268284        1.2548755162       -0.7363315885
 N         -2.9074955981        1.1323769983        0.1756740109
 S         -2.4520441462       -0.4109270423       -0.3524056350
 O         -1.4446460234       -0.9598630584        0.5268487317
 O         -2.1234577562       -0.3414617312       -1.7541031577
 C         -3.9927191728       -1.2867060512       -0.1453769469
 C         -4.9448033190       -1.2110192400       -1.1444180665
 C         -6.1564579085       -1.8596378851       -0.9651786440
 C         -6.3952923728       -2.5672735135        0.2036229860
 C         -5.4294118591       -2.6360134397        1.1964916964
 C         -4.2157242971       -1.9890865122        1.0239846495
 H         -3.4309182668       -2.0209796641        1.7628765750
 H         -5.6159678153       -3.1896466253        2.1025106322
 H         -7.3389363987       -3.0711194176        0.3405209414
 H         -6.9079945883       -1.8110464942       -1.7364344018
 H         -4.7088056803       -0.6564181965       -2.0376950713
 H         -3.7287820428        1.0993942838        0.7646968883
 H         -3.1000770532        2.8290297280        2.2357584867
 H         -1.2611388221        4.2255779218        3.1033738661
 H          0.9905290184        4.0660857853        2.1175515851
 H          2.5166572882        2.7954287947        0.8091743667
 C          2.0274582395        3.4247896448       -1.1648579125
 C          0.9101331483        3.9945331125       -1.9807778834
 C          1.6974672181        4.8853961523       -1.0701264439
 H          2.3817364973        5.5958134115       -1.5082439536
 H          1.2115706498        5.2315478955       -0.1708137413
 H          1.0576877226        4.0674228841       -3.0471967970
 H         -0.1006094529        3.7371206158       -1.7028788317
 H          2.9294291259        3.1619389003       -1.7070664149
