  62
        -98.93584949
 C         -1.5339401020       -1.3355881704        0.2079000942
 C         -1.6627648886       -0.0159993334        0.7062263545
 C         -2.7955817544        0.7845497491        0.2119678083
 C         -3.6532855321        0.2330661235       -0.6668502974
 C         -4.8640282361        0.8046745915       -1.3746748899
 C         -5.4849877019        2.1225603324       -0.9194957368
 C         -6.1587800457        2.0707759341        0.4513633231
 H         -6.4710439228        3.0827655273        0.7181778484
 H         -7.0586157355        1.4553883761        0.3730006696
 C         -5.3084186884        1.4987210595        1.5828899163
 H         -5.9130421566        1.5096668792        2.4939250753
 H         -5.0682855810        0.4548667767        1.3703472358
 C         -4.0147332574        2.2557727697        1.8763229266
 H         -4.2382009724        3.3088365040        2.0583285563
 H         -3.5919202030        1.8408359314        2.7954619658
 C         -2.9312120135        2.1651462108        0.7878514447
 H         -1.9696933349        2.4000491265        1.2545350348
 H         -3.1026521155        2.8960252656        0.0007837280
 H         -4.7469636120        2.9184837328       -0.9518814427
 H         -6.2541730949        2.3744126164       -1.6545959432
 H         -5.6262644953        0.0197226591       -1.3415300603
 H         -4.5719431015        0.9039933604       -2.4258961328
 O         -3.4921371576       -1.0439961069       -1.1164667317
 C         -2.4418350162       -1.8573947661       -0.7126789709
 O         -2.4534964230       -2.9834014823       -1.2403266886
 O         -0.8532605957        0.4806543878        1.5358976802
 C         -0.3458154454       -2.1378690630        0.7087513876
 C          0.8324619164       -1.9081574724       -0.2027361385
 C          0.7521203430       -2.1840217230       -1.5653729642
 C          1.8335296076       -1.9434365901       -2.3918813577
 C          3.0021482999       -1.4008214785       -1.8844487539
 C          3.0875534069       -1.1098103877       -0.5289168861
 C          2.0091278723       -1.3785785684        0.3044304323
 H          2.0915511723       -1.1449010335        1.3551118106
 N          4.2558448756       -0.5481481224        0.0164895467
 S          4.1187209540        0.8315252695        0.9609140141
 O          5.4677048779        1.3485335131        1.0390141354
 O          3.4909929609        0.5069509633        2.2145674133
 C          3.1082999976        1.9294974132       -0.0157321019
 C          1.7337184923        1.9084105094        0.1044018773
 C          0.9808042321        2.7122856579       -0.7382499525
 C          1.6056648319        3.5193064229       -1.6752551057
 C          2.9888939622        3.5336922328       -1.7775955193
 C          3.7476025606        2.7271675102       -0.9463157574
 H          4.8248748407        2.7113956066       -0.9874075400
 H          3.4745223521        4.1663186060       -2.5030353992
 H          1.0110170983        4.1409045148       -2.3260398199
 H         -0.0944619069        2.6914124899       -0.6511214234
 H          1.2555451819        1.2827075771        0.8419444530
 H          5.0036415165       -0.4323475883       -0.6532461353
 H          3.8417917321       -1.2031657685       -2.5333298680
 H          1.7627491860       -2.1693079791       -3.4451127407
 H         -0.1668573861       -2.5880701848       -1.9630963223
 H         -0.0950923161       -1.6909896021        1.6843903963
 C         -0.6561200361       -3.6076249522        0.9520999714
 C         -0.0161212376       -4.7308670874        0.1977935992
 C          0.3677435089       -4.4760640827        1.6223361802
 H          0.0437291588       -5.1697426990        2.3833694567
 H          1.3383222977       -4.0392915035        1.8076132562
 H         -0.6295026639       -5.5891304492       -0.0304085655
 H          0.7009996567       -4.4925505623       -0.5714208156
 H         -1.6887579918       -3.7612333238        1.2477873520
