  62
        -98.94379137
 C          1.4577268898        0.9321486710       -0.4770664879
 C          2.5315552683        1.1089088072        0.4325949368
 C          3.4291756662       -0.0362402525        0.6232779756
 C          3.1733479004       -1.1828499524       -0.0321591114
 C          4.0220539707       -2.4189143024        0.0366590340
 C          5.0938004223       -2.4225687729       -1.0623407260
 C          5.8883315349       -1.1196825443       -1.1529795184
 H          6.6337429437       -1.2474642924       -1.9408243280
 H          5.2189765048       -0.3166073488       -1.4695336418
 C          6.5869773031       -0.7105756351        0.1511766962
 H          6.6557698864       -1.5695224407        0.8196319514
 H          7.6070567358       -0.3976098957       -0.0811019664
 C          5.9211842545        0.4524816481        0.8890660190
 H          6.6072203928        0.7992468724        1.6664216750
 H          5.7637505182        1.2834829434        0.1969980208
 C          4.5839619333        0.1339163381        1.5700304132
 H          4.6939950527       -0.7484339656        2.2043896954
 H          4.3239038353        0.9841877341        2.2075522628
 H          4.6027686154       -2.5928425713       -2.0232473036
 H          5.7750519907       -3.2549676944       -0.8767054299
 H          4.4908342913       -2.4749667385        1.0174504717
 H          3.3728310102       -3.2867976351       -0.0935812947
 O          2.1255959445       -1.3276012131       -0.8783496138
 C          1.2350074591       -0.2865605716       -1.1206150608
 O          0.3305840437       -0.5873413470       -1.9203264254
 H         -0.8166026410        0.0000742502        0.3652589178
 C         -1.1458790693        0.9311256887        0.7955615361
 C         -0.5536832366        2.1205021213        0.3968785316
 C         -0.9713926705        3.3066612667        0.9900264404
 C         -1.9665211919        3.2972921888        1.9512721985
 C         -2.5544192983        2.1094964352        2.3457633842
 C         -2.1299490511        0.9138490843        1.7734544077
 N         -2.6671298182       -0.3014767521        2.2040443666
 S         -2.6424900560       -1.7227533580        1.3345323716
 O         -3.4426198487       -2.6202040864        2.1419770846
 O         -1.2869950980       -2.1404144242        1.0802725093
 C         -3.5267106403       -1.3729804132       -0.1737697008
 C         -4.9004943125       -1.2478708605       -0.0724353135
 C         -5.6380364363       -0.9670407435       -1.2094414053
 C         -4.9921960987       -0.8193564346       -2.4284071902
 C         -3.6160275900       -0.9518566622       -2.5129422789
 C         -2.8682431490       -1.2274721025       -1.3767393252
 H         -1.7940399725       -1.3190504229       -1.4269702384
 H         -3.1070154678       -0.8406763273       -3.4568450120
 H         -5.5637964542       -0.6026371439       -3.3170535804
 H         -6.7094008380       -0.8666417237       -1.1441700405
 H         -5.3643076961       -1.3932141881        0.8895803239
 H         -3.4453888021       -0.2431041202        2.8417274774
 H         -3.3208621429        2.1001593121        3.1051690141
 H         -2.2838609842        4.2241652346        2.4041880978
 H         -0.4960806747        4.2354275379        0.7110712493
 C          0.5292697576        2.1198832909       -0.6549119135
 H          1.1606863349        3.0037951887       -0.4668885718
 C         -0.0287152765        2.2502840204       -2.0650605182
 C         -1.4514081661        1.9446963112       -2.4130050860
 C         -0.9726995182        3.3634252240       -2.4126352001
 H         -0.8451506578        3.8669854657       -3.3588228349
 H         -1.3111655710        4.0029570842       -1.6124508545
 H         -1.6404197169        1.4571910866       -3.3563192387
 H         -2.1094672101        1.6232044999       -1.6203078647
 H          0.7129857354        1.9921898268       -2.8139858035
 O          2.7313016560        2.1884103188        1.0540511171
