  62
        -98.93945058
 C          2.2373017815        0.8659228857       -0.0388510183
 C          3.2459523712        0.6783907693        0.9372732719
 C          4.1160235238       -0.4994207672        0.7796365953
 C          3.9057932012       -1.3395881845       -0.2508749228
 C          4.5877605899       -2.6356202634       -0.6374292291
 C          5.9116386950       -3.0436236116        0.0035245217
 C          7.1023169714       -2.1634490721       -0.3756687429
 H          7.9631792151       -2.4787884696        0.2177541837
 H          7.3413122575       -2.3385677392       -1.4276821231
 C          6.8962292902       -0.6617058273       -0.1946534244
 H          7.8124762433       -0.1578709208       -0.5141534462
 H          6.0951543310       -0.3195688196       -0.8530794410
 C          6.5922929371       -0.2110539796        1.2325717260
 H          7.3692074371       -0.5766024288        1.9067140611
 H          6.6242096492        0.8816344405        1.2463036684
 C          5.2224981051       -0.6405965305        1.7853528623
 H          4.9684941658        0.0266476381        2.6140502949
 H          5.2550597414       -1.6529382595        2.1808036924
 H          5.8052996712       -3.0996075308        1.0827964954
 H          6.1263205357       -4.0572826428       -0.3457231257
 H          3.8512865835       -3.4240143994       -0.4453600957
 H          4.7139331370       -2.5933145190       -1.7240874035
 O          2.9057113317       -1.1288606063       -1.1562371318
 C          2.0558478491       -0.0372005454       -1.0842442786
 O          1.2130085343        0.0057773188       -2.0019668825
 O          3.4121154653        1.4630506002        1.9086207144
 C          1.3128725606        2.0637944716        0.1084737014
 C         -0.0533377107        1.5505065333        0.4896444175
 C         -0.3208746817        1.2513483055        1.8228634202
 C         -1.5365422874        0.7088827808        2.1940225929
 C         -2.5072962373        0.4427620199        1.2435406793
 C         -2.2427970961        0.7206828945       -0.0901457191
 C         -1.0303425638        1.2891643128       -0.4580618591
 H         -0.8340203864        1.4869743053       -1.4998959352
 N         -3.2155857968        0.4383945178       -1.0654321283
 S         -3.9457606144       -1.0732793002       -1.0317722164
 O         -3.0846530847       -2.0775432493       -0.4505990664
 O         -4.3895829520       -1.3107241302       -2.3884248714
 C         -5.3755810353       -0.8222168035        0.0020429815
 C         -6.2219279367        0.2273036293       -0.2983912575
 C         -7.3446729882        0.4278009617        0.4885642311
 C         -7.6032750219       -0.4213807847        1.5543273928
 C         -6.7461894973       -1.4727384674        1.8407067863
 C         -5.6204296317       -1.6780320797        1.0580062334
 H         -4.9219922733       -2.4779131579        1.2467308526
 H         -6.9484934920       -2.1324047108        2.6692129472
 H         -8.4777963066       -0.2629743019        2.1654122601
 H         -8.0133595595        1.2444581253        0.2691109269
 H         -5.9862938961        0.8623194780       -1.1358561851
 H         -2.9123117308        0.6595440494       -2.0034708331
 H         -3.4525608533        0.0068565904        1.5229703492
 H         -1.7310074337        0.4861826487        3.2321607109
 H          0.4460685058        1.4357789965        2.5620854628
 H          1.7122364116        2.6348157967        0.9571938962
 C          1.3162192762        2.9494096520       -1.1195216651
 C          0.7326057903        4.3268404891       -1.0281702033
 C          2.2147244617        4.1477203997       -1.1555499535
 H          2.6884354730        4.4068894164       -2.0906208491
 H          2.8297639081        4.3372192070       -0.2881688809
 H          0.1864472974        4.7133156103       -1.8749908839
 H          0.3395708086        4.6361850513       -0.0716511121
 H          1.1873134983        2.4030362353       -2.0459257660
