  62
        -98.95003516
 C         -1.9099968007       -1.0281960785        0.0251269414
 C         -1.3432285114       -1.8156765392       -1.0072231383
 C         -0.2761509919       -2.7370774298       -0.5987537081
 C          0.0707586881       -2.8252430196        0.6982818419
 C          1.0954184276       -3.7599575001        1.2825386321
 C          2.5412208679       -3.2516630210        1.2035894118
 C          3.1594511077       -3.2725581920       -0.1943551783
 H          4.2315410679       -3.1047290326       -0.0759429584
 H          3.0304974570       -4.2606855420       -0.6373218779
 C          2.5974807584       -2.2043235119       -1.1416372186
 H          2.0845389189       -1.4317967914       -0.5646292388
 H          3.4154374586       -1.7024787126       -1.6646112789
 C          1.6399233679       -2.7277175017       -2.2122948883
 H          2.1825664174       -3.3702017123       -2.9101411981
 H          1.2669336984       -1.8628769316       -2.7686055186
 C          0.4360987174       -3.5082154907       -1.6675725179
 H         -0.2678252328       -3.6670962405       -2.4885858878
 H          0.7582464868       -4.4789687907       -1.2897746776
 H          2.5808329286       -2.2338700509        1.5979452214
 H          3.1448599675       -3.8881511012        1.8543948719
 H          0.8325139476       -3.8861352195        2.3350006922
 H          1.0240418569       -4.7296985902        0.7888767625
 O         -0.5199125913       -2.0739277388        1.6643552117
 C         -1.4864445107       -1.1258868983        1.3503048414
 O         -1.8801289201       -0.4610220277        2.3264457912
 O         -1.7202042314       -1.7578425694       -2.2086401083
 C         -2.9584510501        0.0121153821       -0.3345920888
 C         -2.3732155091        1.3799737118       -0.0779543694
 C         -2.9110339984        2.3034635425        0.8079478504
 C         -2.2687508976        3.5095383321        1.0310887899
 C         -1.0792779675        3.8107761711        0.3937506196
 C         -0.5376926882        2.8981236704       -0.5060724101
 C         -1.1999997990        1.7054681708       -0.7496322296
 H         -0.7835470495        1.0052323202       -1.4597453894
 N          0.6626787920        3.1826973994       -1.1796546103
 S          1.8677383112        2.0398750585       -1.3615670900
 O          2.9727032216        2.7774693676       -1.9338785704
 O          1.3819769903        0.9224158486       -2.1266639296
 C          2.3013015310        1.5315209088        0.2925037701
 C          3.4616753614        2.0208777682        0.8601532798
 C          3.7833239513        1.6527754585        2.1566091999
 C          2.9361875508        0.8163265693        2.8680112803
 C          1.7710479204        0.3384588699        2.2879940006
 C          1.4520373005        0.6932261196        0.9865971105
 H          0.5529539702        0.3279980600        0.5142796407
 H          1.0969090200       -0.3040219495        2.8340759909
 H          3.1819106407        0.5322949295        3.8791156704
 H          4.6896472016        2.0208000080        2.6096863497
 H          4.0890067918        2.6692169876        0.2701658795
 H          1.0656704026        4.0793456992       -0.9485854707
 H         -0.5722984768        4.7442912508        0.5851198193
 H         -2.6937840671        4.2191029126        1.7245699397
 H         -3.8244093985        2.0757428732        1.3316292605
 H         -3.1149004103       -0.0953352082       -1.4180688888
 C         -4.2670515102       -0.2476539768        0.3782873514
 C         -5.5453512699        0.2895897439       -0.1901851587
 C         -5.2602328209       -1.1804269563       -0.2447178082
 H         -5.8211668312       -1.8408543057        0.3993565821
 H         -5.0012932113       -1.6180986569       -1.1980061480
 H         -6.3070111296        0.6381827346        0.4905540613
 H         -5.4849537796        0.8514866335       -1.1100480489
 H         -4.1595085401       -0.2829385765        1.4560570014
