  62
        -98.92990451
 C         -2.4324016793       -1.0549156393        0.5466474868
 C         -2.5357411421        0.2622618899        1.0568030291
 C         -3.7884485204        0.9980883905        0.7995099541
 C         -4.7699493291        0.3776747446        0.1191421762
 C         -6.1111460640        0.9234705937       -0.2935773941
 C         -6.0171763225        1.8816600269       -1.4919145648
 C         -4.8723586404        2.8888880208       -1.4213571469
 H         -4.8471411178        3.4301206780       -2.3708731311
 H         -3.9259828020        2.3520584253       -1.3304492167
 C         -4.9803773132        3.9195931017       -0.3000777731
 H         -5.9105308415        4.4801857673       -0.4169119667
 H         -4.1513727989        4.6211819254       -0.4240404915
 C         -4.9227853231        3.3667295950        1.1255319985
 H         -5.8704893420        2.9188477961        1.4119191937
 H         -4.7646749766        4.2154486418        1.7974264671
 C         -3.7802268258        2.3895365200        1.3852034566
 H         -3.6774206783        2.2518976377        2.4686731579
 H         -2.8357208051        2.8454315600        1.0654725017
 H         -6.9663260306        2.4119728433       -1.5847401565
 H         -5.8755207533        1.2810443687       -2.3935709995
 H         -6.5936282686        1.4052125104        0.5516092031
 H         -6.7223264722        0.0654480793       -0.5817314849
 O         -4.6350465900       -0.8971792511       -0.3403193345
 C         -3.4813755304       -1.6437204143       -0.1601137268
 O         -3.5381467153       -2.7793367422       -0.6648565890
 O         -1.6100497306        0.8138279328        1.7149839744
 C         -1.1303013409       -1.7887058165        0.8102681515
 C         -0.1561927558       -1.5863664016       -0.3227001354
 C         -0.5259234158       -1.8220730475       -1.6437262513
 C          0.3823271017       -1.6296478704       -2.6682589058
 C          1.6680099084       -1.1949630723       -2.3984132930
 C          2.0490970878       -0.9597197988       -1.0823565280
 C          1.1359244540       -1.1581279119       -0.0552483786
 H          1.4368522522       -0.9521999645        0.9609794400
 N          3.3630257766       -0.5598039440       -0.7837914937
 S          3.6217990724        0.5364454554        0.4758749311
 O          3.5255189097       -0.1676257528        1.7293409617
 O          2.7691139975        1.6921172020        0.3116924622
 C          5.3225256331        0.9712995447        0.1629574438
 C          6.3141078783        0.0986913542        0.5701289883
 C          7.6364042837        0.4170240895        0.3047857863
 C          7.9437798288        1.5954869167       -0.3592259428
 C          6.9381399790        2.4622912221       -0.7595973763
 C          5.6132473505        2.1492611866       -0.4985889752
 H          4.7986336598        2.7961387707       -0.7825716268
 H          7.1801090329        3.3792993581       -1.2722845848
 H          8.9738499975        1.8414748713       -0.5633958013
 H          8.4212993384       -0.2527240521        0.6170673056
 H          6.0278458593       -0.7999174724        1.0911079515
 H          3.8777686206       -0.2842411149       -1.6098614073
 H          2.3729681152       -1.0408726746       -3.2012288359
 H          0.0837902925       -1.8147538591       -3.6892288363
 H         -1.5293434784       -2.1599030700       -1.8547636182
 H         -0.7033505697       -1.2909780588        1.6965930566
 C         -1.3251196324       -3.2563630440        1.1667764917
 C         -0.8980750714       -4.3882578833        0.2861397337
 C         -0.1378978592       -4.0935486453        1.5419979742
 H         -0.2260234738       -4.7725264352        2.3765401895
 H          0.8367580880       -3.6381665022        1.4432575715
 H         -1.5337766491       -5.2596484177        0.2536884595
 H         -0.4335823217       -4.1540124258       -0.6583338607
 H         -2.2322482785       -3.4135167570        1.7416948681
