  62
        -98.94083740
 C         -1.7230452994       -0.1332483216       -0.6318160657
 C         -2.9063912899        0.2874515460       -1.2921329954
 C         -4.1750089771       -0.1617040345       -0.7042345600
 C         -4.1491596594       -0.9763863294        0.3656566927
 C         -5.3624801798       -1.4588402217        1.1054230976
 C         -5.7266187605       -0.5054450284        2.2524180157
 C         -5.7818247146        0.9656955155        1.8399939144
 H         -6.0750214588        1.5393562160        2.7219179006
 H         -4.7778771623        1.2957928859        1.5629069841
 C         -6.7511493369        1.2667247031        0.6882134188
 H         -7.4589688386        0.4446781079        0.5762100921
 H         -7.3278167040        2.1590474711        0.9406761866
 C         -6.0746076291        1.5391835162       -0.6565978716
 H         -5.3005052186        2.3003252994       -0.5294133673
 H         -6.8253727749        1.9477162926       -1.3381298376
 C         -5.4455310741        0.3213712235       -1.3450832393
 H         -6.1779495882       -0.4859887354       -1.4060486713
 H         -5.1736680398        0.6176467007       -2.3624283626
 H         -6.6935049418       -0.8077352723        2.6588688442
 H         -4.9782971543       -0.6117972567        3.0414954546
 H         -6.1959567003       -1.5434798691        0.4107312316
 H         -5.1439632937       -2.4446754906        1.5193535928
 O         -2.9966753119       -1.4211326319        0.9262101781
 C         -1.7540583535       -1.0098713176        0.4539086075
 O         -0.7955444629       -1.5028813871        1.0765729104
 H          1.9657476760       -0.0112138522        0.1788579907
 C          1.7661516199       -0.7872022196       -0.5395583707
 C          0.5968956664       -0.7635781011       -1.2829383492
 C          0.3376345465       -1.8163333119       -2.1566425106
 C          1.2198761252       -2.8729707546       -2.2680542346
 C          2.3880233805       -2.8924431804       -1.5268825272
 C          2.6608718970       -1.8421981359       -0.6576152129
 N          3.8643119896       -1.8168484106        0.0497072357
 S          4.2502387217       -0.7396374685        1.2522079299
 O          5.5772068852       -1.1502034551        1.6631085645
 O          3.2633397872       -0.6822544977        2.3041570218
 C          4.3480731153        0.8313431704        0.4171194295
 C          3.8701267767        1.9573020465        1.0573547138
 C          3.9488813811        3.1823952612        0.4143730849
 C          4.5062813329        3.2604063320       -0.8525065462
 C          4.9900346005        2.1220584789       -1.4790850164
 C          4.9139264116        0.8944005162       -0.8406636089
 H          5.2774255719       -0.0086832940       -1.3015731453
 H          5.4233078544        2.1870532997       -2.4641519102
 H          4.5624192222        4.2139050163       -1.3535666048
 H          3.5733918185        4.0681750247        0.9016918111
 H          3.4366733073        1.8467903422        2.0391770565
 H          4.4195854049       -2.6569228229        0.0453777026
 H          3.0798003004       -3.7162285986       -1.6131880586
 H          0.9997284486       -3.6894076386       -2.9394658673
 H         -0.5759301401       -1.8016946864       -2.7355599045
 C         -0.4002907611        0.3619936514       -1.1884906012
 H         -0.6420517737        0.6849380855       -2.2152453980
 C          0.1507128162        1.5847503798       -0.4691475240
 C         -0.7684814657        2.5999188085        0.1390464934
 C          0.0809426725        1.7358167628        1.0195205875
 H          0.9199512116        2.1865515824        1.5286626109
 H         -0.3883942089        0.9438769337        1.5829600032
 H         -0.5151716745        3.6447496543        0.0434451112
 H         -1.8297015170        2.4020544532        0.0989318882
 H          1.0419584707        1.9725057121       -0.9541570168
 O         -2.9002227631        1.0050846320       -2.3273510094
