  62
        -98.93702669
 C         -1.5522784554       -0.8826367606       -0.4743837352
 C         -2.7178429725       -1.0993693628        0.3167506106
 C         -3.4173585306        0.0848050058        0.8204415555
 C         -2.9205926147        1.3071469653        0.5639562950
 C         -3.4891289760        2.6180385805        1.0346163287
 C         -4.6173835578        3.1641884352        0.1489070269
 C         -5.9466809079        2.4158460223        0.2560812601
 H         -6.2333187886        2.3369987753        1.3052100451
 H         -6.7001707132        3.0284972225       -0.2428201871
 C         -5.9414613354        1.0207764741       -0.3845850663
 H         -5.0856708317        0.9325897601       -1.0577827509
 H         -6.8406562953        0.8957031338       -0.9919086566
 C         -5.9050367389       -0.1364883455        0.6137652655
 H         -5.8698527845       -1.0730445800        0.0514901829
 H         -6.8203215919       -0.1354397282        1.2097866597
 C         -4.7024188130       -0.1122150508        1.5665521097
 H         -4.8294330267        0.6708009172        2.3142949032
 H         -4.6470282111       -1.0770691207        2.0764919551
 H         -4.7849621952        4.2037770518        0.4397790621
 H         -4.2789784702        3.1600902624       -0.8898147564
 H         -3.8463801170        2.5131289154        2.0596712447
 H         -2.6640135927        3.3339425243        1.0275623151
 O         -1.7946601079        1.4830829589       -0.1678474541
 C         -1.0901483623        0.4142810850       -0.7095330179
 O         -0.1020038842        0.7909382489       -1.3676961829
 O         -3.1611297655       -2.2479481041        0.5922333981
 C         -0.8772157133       -2.1564446191       -0.9553159794
 C          0.3708634708       -2.5132085865       -0.1756236646
 C          0.5612119582       -3.8302115681        0.2318303887
 C          1.6812209553       -4.1891345761        0.9582244255
 C          2.6196352894       -3.2375709092        1.3120966162
 C          2.4432314448       -1.9180081877        0.9074936539
 C          1.3373748745       -1.5709988083        0.1434071635
 H          1.2160126765       -0.5498577067       -0.1696383714
 N          3.3958130304       -0.9531398825        1.2546476288
 S          3.0745342781        0.6664961922        1.5446867855
 O          3.9293995414        1.0019204550        2.6675019413
 O          1.6652484820        0.9142393821        1.7246891372
 C          3.7268322480        1.4707656300        0.0955113734
 C          5.0902714898        1.6988693908        0.0601886068
 C          5.6452847846        2.2967775280       -1.0584040101
 C          4.8315077512        2.6537596038       -2.1234752918
 C          3.4669917150        2.4185658387       -2.0724705492
 C          2.9035836109        1.8210937508       -0.9541145012
 H          1.8434746511        1.6282808961       -0.8992025575
 H          2.8283272739        2.6926861661       -2.8971563074
 H          5.2610986678        3.1191665843       -2.9966476860
 H          6.7066302113        2.4821597223       -1.0976646107
 H          5.6822343156        1.4183286460        0.9156188084
 H          4.1261367852       -1.2880096655        1.8652223586
 H          3.4828127829       -3.5092462774        1.9007830704
 H          1.8163987836       -5.2141142663        1.2686671028
 H         -0.1868324842       -4.5708279663       -0.0113493604
 H         -1.6229816800       -2.9268437348       -0.7000900470
 C         -0.6119405341       -2.3440462118       -2.4476847664
 C         -1.2091639013       -1.4776151139       -3.5119716511
 C          0.2725206800       -1.4714359503       -3.2823812192
 H          0.9094017348       -1.9486580947       -4.0128010850
 H          0.6955011733       -0.5943936576       -2.8229152965
 H         -1.6041041704       -1.9469180057       -4.4010416640
 H         -1.7620519245       -0.6058874080       -3.1931832699
 H         -0.5595690800       -3.4034117421       -2.6851327759
