  62
        -98.93865526
 C          2.3008435599        1.2557001231       -0.0721430021
 C          3.0373066585        0.5310999138        0.8989415128
 C          3.7113410484       -0.7056571239        0.4631626773
 C          3.6000242198       -1.0783536317       -0.8250242880
 C          4.1464009971       -2.3124022618       -1.4918831547
 C          3.3305271437       -3.5710433422       -1.1559693665
 C          2.9544163343       -3.7190004223        0.3161012167
 H          2.3716910782       -2.8485585687        0.6249696228
 H          2.2982976738       -4.5893096910        0.4031264148
 C          4.1276834447       -3.9188720599        1.2730360929
 H          3.7066713855       -4.1010912204        2.2649889257
 H          4.6804476345       -4.8133132542        0.9773846255
 C          5.1124768650       -2.7526163768        1.3828685125
 H          5.7873888071       -2.7269532152        0.5316615596
 H          5.7325860536       -2.9340418352        2.2654880922
 C          4.4632283818       -1.3867153805        1.5811880188
 H          5.2366954192       -0.6742856384        1.8923416974
 H          3.7651189430       -1.4399502425        2.4242297182
 H          3.8963205774       -4.4460927133       -1.4805430698
 H          2.4016731444       -3.5354767720       -1.7315835319
 H          4.0890542317       -2.1388503122       -2.5688074388
 H          5.1921205627       -2.4474246358       -1.2323497731
 O          2.8919057689       -0.3458211360       -1.7294195349
 C          2.2165518024        0.8114181138       -1.3906584404
 O          1.6087503616        1.3282280660       -2.3521422828
 O          3.1299949863        0.9029251776        2.0997514295
 C          1.5720004529        2.4991836594        0.4139335561
 C          0.1284729923        2.1493817727        0.6852845956
 C         -0.3701860621        2.1150367277        1.9822412848
 C         -1.6747594666        1.7222226667        2.2266526937
 C         -2.5023641199        1.3407228396        1.1853974968
 C         -2.0095604295        1.3655002227       -0.1122733837
 C         -0.7127634214        1.7858947963       -0.3572978798
 H         -0.3344863884        1.7834011325       -1.3690827748
 N         -2.8325018160        0.9172759643       -1.1750435730
 S         -3.0343139513       -0.7584382725       -1.1826134109
 O         -1.8769104943       -1.4331971673       -0.6365253086
 O         -3.3997473088       -1.1035569704       -2.5394465006
 C         -4.4399266336       -1.0021648722       -0.1178240899
 C         -4.2895188958       -1.6780106888        1.0769380806
 C         -5.3965893792       -1.8467844449        1.8941976169
 C         -6.6265023690       -1.3392157650        1.5039123696
 C         -6.7609237408       -0.6644081716        0.2993848987
 C         -5.6584633099       -0.4922969138       -0.5222565328
 H         -5.7164854086        0.0208357754       -1.4675775973
 H         -7.7190963453       -0.2718869931       -0.0005817220
 H         -7.4856315075       -1.4710682541        2.1425185521
 H         -5.2937902355       -2.3710371025        2.8306855536
 H         -3.3117855660       -2.0494180689        1.3394704342
 H         -2.4665231267        1.1924377996       -2.0774887547
 H         -3.5153571332        1.0209022821        1.3681157520
 H         -2.0477129142        1.7023903873        3.2391827816
 H          0.2822628640        2.3764828091        2.8025940535
 H          2.0427470732        2.7520272402        1.3733303236
 C          1.7023033425        3.6890016917       -0.5144607052
 C          1.4495951221        5.0622008598        0.0295232924
 C          2.8430905403        4.6417587797       -0.3268884530
 H          3.3053841054        5.0683224154       -1.2043321486
 H          3.5364903966        4.4386113467        0.4761141430
 H          0.9520823771        5.7818114959       -0.6021466864
 H          1.1982479630        5.1458223408        1.0758964978
 H          1.3925356038        3.4830430567       -1.5305778811
