  62
        -98.94549652
 C          1.7289762423        1.4439252641        0.2110596367
 C          1.5193636867        0.1270137421       -0.2666343301
 C          2.5190524220       -0.8644733100        0.1522649048
 C          3.5268461498       -0.5011807822        0.9655517511
 C          4.6072385320       -1.4045991676        1.4953929706
 C          5.7839431201       -1.6036408089        0.5301767385
 C          5.4880647268       -2.4862390943       -0.6830848872
 H          6.4468692824       -2.7183357396       -1.1511016528
 H          5.0535727675       -3.4284952359       -0.3479552689
 C          4.5723240783       -1.8372404151       -1.7303160620
 H          4.5402905059       -0.7575502779       -1.5666749666
 H          4.9899499684       -1.9966551882       -2.7271339631
 C          3.1426555954       -2.3784038532       -1.7450842841
 H          3.1537324669       -3.4306181363       -2.0377073299
 H          2.5760864140       -1.8248884156       -2.4980444108
 C          2.4036242662       -2.2502413231       -0.4064567706
 H          1.3428144203       -2.4432068620       -0.5795290376
 H          2.7865300959       -2.9809410158        0.3053104877
 H          6.5963961871       -2.0636490000        1.0974979455
 H          6.1290084865       -0.6235076352        0.1927143025
 H          4.1807890286       -2.3737657743        1.7551244125
 H          4.9855554916       -0.9356009427        2.4062442455
 O          3.6709583717        0.7686646503        1.4311943766
 C          2.7894177155        1.7690361225        1.0585378272
 O          3.0479898232        2.8890328846        1.5442161847
 O          0.5584295608       -0.2107211356       -1.0047450166
 C          0.7664003825        2.5602334692       -0.1603779876
 C         -0.5930228533        2.2006995613        0.3854613934
 C         -0.7954280158        2.2513790300        1.7621088565
 C         -2.0014839977        1.8635436306        2.3137623776
 C         -3.0269557986        1.4021369987        1.5059703354
 C         -2.8294470255        1.3363462452        0.1337938157
 C         -1.6243941738        1.7487317546       -0.4206801686
 H         -1.4872552839        1.6880739328       -1.4882153147
 N         -3.8567615466        0.8523391098       -0.6985595242
 S         -4.5519884067       -0.6226017773       -0.3203200956
 O         -5.2313912090       -1.0358982766       -1.5275783407
 O         -5.3796563467       -0.4691678459        0.8503584775
 C         -3.1982958688       -1.7277332127        0.0322557112
 C         -2.8156813989       -1.9445618608        1.3401076381
 C         -1.7423466419       -2.7834722345        1.5916965085
 C         -1.0769778627       -3.3897199497        0.5380200829
 C         -1.4730159987       -3.1602971950       -0.7703995403
 C         -2.5400755954       -2.3167772836       -1.0282864396
 H         -2.8809244442       -2.1196200128       -2.0319422332
 H         -0.9512004885       -3.6300925314       -1.5889187012
 H         -0.2446114683       -4.0462148566        0.7387676962
 H         -1.4275416742       -2.9606575635        2.6077602824
 H         -3.3654844258       -1.4656898595        2.1334672223
 H         -3.6113391644        0.8696326898       -1.6783263592
 H         -3.9718945541        1.0875660643        1.9183966609
 H         -2.1456420278        1.9158587955        3.3824229023
 H          0.0136501051        2.5923275513        2.3939835448
 H          1.1224738528        3.4575697828        0.3631871340
 C          0.7878852497        2.8233881871       -1.6512405792
 C          0.2278985180        4.1067659611       -2.1848009201
 C          1.7081767548        3.8730615477       -2.1940258138
 H          2.1963195149        3.6914219836       -3.1399313137
 H          2.3180971960        4.4160113570       -1.4867144203
 H         -0.3000344068        4.0901150841       -3.1262538979
 H         -0.1700102794        4.8114681907       -1.4703477524
 H          0.6600244776        1.9256969295       -2.2442958761
