  62
        -98.94661707
 C         -2.4756546484       -0.3980600390       -0.0419821615
 C         -2.2273040102       -1.5278755533       -0.8546212735
 C         -1.5328866298       -2.6430097671       -0.2043889258
 C         -1.1809211414       -2.5437276479        1.0905416836
 C         -0.4386558763       -3.5833573892        1.8855249851
 C          1.0830598778       -3.5204722370        1.6908646691
 C          1.5901313869       -4.0719619228        0.3572062973
 H          1.1578955396       -5.0584011914        0.1830873565
 H          2.6701324569       -4.1992458930        0.4549283645
 C          1.3111712864       -3.1601751153       -0.8454835175
 H          2.2110094205       -3.0919416380       -1.4618734856
 H          1.0896495571       -2.1528059607       -0.4855414156
 C          0.1767476400       -3.6330604151       -1.7550782733
 H          0.4574300455       -4.5754168921       -2.2318186962
 H          0.0340066727       -2.8865045717       -2.5405842706
 C         -1.1679475344       -3.8306442082       -1.0444062035
 H         -1.1412749021       -4.7322649118       -0.4328640640
 H         -1.9431255054       -3.9462176482       -1.8064471517
 H          1.5412339849       -4.0959229218        2.4991029587
 H          1.4008113063       -2.4793882191        1.7957579073
 H         -0.8030639788       -4.5790069218        1.6296662093
 H         -0.6615016450       -3.3889483604        2.9369517880
 O         -1.4828021780       -1.4598379363        1.8529673185
 C         -2.0930345660       -0.3477099003        1.2990499819
 O         -2.2625161620        0.5980262298        2.0955975040
 O         -2.5612718314       -1.5954544494       -2.0698089325
 C         -3.0810947069        0.8451392477       -0.6683734583
 C         -2.1346878492        2.0052531511       -0.4736692985
 C         -2.5501351681        3.2890418209       -0.1464436521
 C         -1.6191206491        4.2881662841        0.0823438694
 C         -0.2640193316        4.0208474786        0.0239068207
 C          0.1615195234        2.7426667971       -0.3192662075
 C         -0.7729989452        1.7647224146       -0.6104883020
 H         -0.4340397876        0.7782321540       -0.8879745156
 N          1.5354314796        2.4146577431       -0.3812890574
 S          2.0818504399        1.1769972585        0.6391710705
 O          1.2483935844        0.0129648002        0.5104748887
 O          2.2561123045        1.7088133875        1.9767802953
 C          3.6784352214        0.8583774472       -0.0861991323
 C          3.7313298334        0.0906264085       -1.2332356499
 C          4.9614884036       -0.1463242923       -1.8251679833
 C          6.1119407926        0.3883529363       -1.2642010294
 C          6.0430129724        1.1572151578       -0.1124908686
 C          4.8150795016        1.3971869218        0.4843866386
 H          4.7142530794        1.9796928818        1.3859127409
 H          6.9391474600        1.5694142562        0.3225298060
 H          7.0681459095        0.2018751402       -1.7269318164
 H          5.0178555421       -0.7458901170       -2.7194601098
 H          2.8123348764       -0.3104502600       -1.6290415578
 H          2.1153781983        3.2253569387       -0.1990593794
 H          0.4602591348        4.7902265785        0.2476050855
 H         -1.9543744054        5.2820057411        0.3383543557
 H         -3.6022204833        3.5051934091       -0.0547223545
 H         -3.1595903653        0.6268415643       -1.7442559419
 C         -4.4688605957        1.1042016973       -0.1203316931
 C         -5.5124270584        1.7622385476       -0.9718906049
 C         -5.6170561922        0.3021214973       -0.6530523413
 H         -6.3808773028       -0.0252074470        0.0361335477
 H         -5.3988244480       -0.4113384032       -1.4341526943
 H         -6.2100743186        2.4383147678       -0.5009084403
 H         -5.2347769453        2.0412236657       -1.9770317390
 H         -4.4583505438        1.3214236112        0.9422677437
