  62
        -98.93913155
 C         -2.7326336002       -1.0333798925       -0.2718715184
 C         -2.4194333424        0.1158537434       -1.0373483808
 C         -3.3083507056        1.2735270546       -0.8533987886
 C         -4.3556190026        1.1833841157       -0.0148352305
 C         -5.2995920644        2.3042412942        0.3077414121
 C         -4.8210273687        3.0977327593        1.5318157215
 C         -3.3500243807        3.5089314377        1.4660847084
 H         -3.1343709629        4.0876566899        2.3668683455
 H         -2.7268097713        2.6122426369        1.5048985265
 C         -2.9754998393        4.3338176266        0.2267649155
 H         -3.8753857495        4.7529756417       -0.2247778689
 H         -2.3496943622        5.1717092601        0.5409106943
 C         -2.1877701305        3.5634467706       -0.8345887189
 H         -1.3363170550        3.0628952998       -0.3661545123
 H         -1.7895099450        4.2854491560       -1.5523628408
 C         -2.9839514690        2.5198865466       -1.6285609607
 H         -3.8932112155        2.9742580311       -2.0266421924
 H         -2.3641593672        2.1975434610       -2.4702363069
 H         -5.4455594308        3.9873102495        1.6318720993
 H         -4.9636578158        2.4803821202        2.4217691846
 H         -5.3834372919        2.9621207702       -0.5550255851
 H         -6.2799695511        1.8763650030        0.5237588549
 O         -4.6456828180        0.0546337911        0.6800463265
 C         -3.8418207560       -1.0658935918        0.5811239813
 O         -4.2171111243       -2.0243328770        1.2856093800
 H          0.2155802546       -0.6928306887       -0.7619853428
 C          0.3523316182       -1.2897506144        0.1278310090
 C         -0.6493634540       -2.1701937075        0.5110430064
 C         -0.4663911710       -2.9189297994        1.6675891587
 C          0.6886702235       -2.7838748283        2.4181394905
 C          1.6798803364       -1.8962176119        2.0389856259
 C          1.5057542304       -1.1417837564        0.8857907690
 N          2.4814424103       -0.1960910876        0.4991428163
 S          4.0584548155       -0.7411532794        0.2399174453
 O          4.1057853902       -1.6208156650       -0.9093153278
 O          4.5693554581       -1.2856277327        1.4716901997
 C          4.8728917288        0.7990571133       -0.1290132808
 C          5.2248997371        1.6250366979        0.9210757886
 C          5.8316012577        2.8393739290        0.6433879856
 C          6.0734239551        3.2060214694       -0.6723571397
 C          5.7149583958        2.3659172801       -1.7155758672
 C          5.1065738135        1.1502499538       -1.4443441171
 H          4.8182667616        0.4632835448       -2.2239762225
 H          5.9058320023        2.6525587790       -2.7372954054
 H          6.5459783333        4.1516975140       -0.8862890705
 H          6.1133153102        3.4949883997        1.4515222464
 H          5.0246484451        1.2955736216        1.9270951412
 H          2.1799185662        0.3039329649       -0.3284446484
 H          2.5850576061       -1.7892928848        2.6135128678
 H          0.8174047859       -3.3731817508        3.3136597913
 H         -1.2426616536       -3.6018037082        1.9822110041
 C         -1.9094809134       -2.3128440826       -0.3102394995
 H         -2.5342620080       -3.0779971041        0.1694088021
 C         -1.5958703341       -2.7723669534       -1.7212348256
 C         -1.2662761416       -4.2140595762       -1.9582524398
 C         -2.5716305183       -3.6544385983       -2.4372936337
 H         -2.7154033124       -3.5095256061       -3.4974538579
 H         -3.4713904337       -3.9354612659       -1.9091208433
 H         -1.2816039940       -4.8771892799       -1.1063624064
 H         -0.5090542687       -4.4558432422       -2.6883968528
 H         -1.0717785561       -2.0328415359       -2.3117914669
 O         -1.4512861452        0.2013109550       -1.8408792778
