  62
        -98.93963248
 C         -2.6308381330       -1.2599230671        0.0726662503
 C         -2.7510708887       -0.2553110320       -0.9175746751
 C         -4.0982440473        0.3007207893       -1.0959568358
 C         -5.1216852376       -0.1727969602       -0.3621004903
 C         -6.5548086755        0.2780307515       -0.4466909984
 C         -6.8644000412        1.5306215285        0.3845588529
 C         -6.2992331837        2.8376897145       -0.1729587803
 H         -6.5931156409        2.9431158541       -1.2176903238
 H         -6.7695799939        3.6520712629        0.3816924514
 C         -4.7749568327        2.9729144750       -0.0489616438
 H         -4.4021203977        2.2503443170        0.6808564567
 H         -4.5264782206        3.9661968187        0.3318037098
 C         -4.0119826855        2.7876776131       -1.3607840898
 H         -2.9422711374        2.8621252165       -1.1474610470
 H         -4.2745304441        3.5903250498       -2.0535902660
 C         -4.2641172327        1.4419128899       -2.0532159766
 H         -5.2589053492        1.4272800523       -2.4978443996
 H         -3.5220832752        1.3207538705       -2.8460608396
 H         -7.9514123721        1.6242806631        0.4402502929
 H         -6.4919310576        1.3768471949        1.4000580964
 H         -6.8223143984        0.4559404939       -1.4885284681
 H         -7.1627429261       -0.5458122256       -0.0666692696
 O         -4.9678188037       -1.1614390671        0.5593979804
 C         -3.7207615586       -1.7075137663        0.8180974828
 O         -3.7136867159       -2.5717504880        1.7188182369
 O         -1.7894107170        0.1540973667       -1.6179611649
 C         -1.2730588227       -1.8732793249        0.3629435353
 C         -0.2981657886       -0.7878485740        0.7524847303
 C         -0.6636797572        0.1090193299        1.7532326302
 C          0.1915270416        1.1205842030        2.1442989973
 C          1.4321012619        1.2623085097        1.5472842349
 C          1.8124245476        0.3669802624        0.5580359345
 C          0.9535758502       -0.6572462879        0.1739173791
 H          1.2643969150       -1.3451613386       -0.5969026825
 N          3.0640408344        0.5107764704       -0.0662210385
 S          4.3941477187        0.8630764829        0.9123548121
 O          4.4013937612       -0.0042843691        2.0695534873
 O          4.4023307772        2.2779037131        1.1877049305
 C          5.7367353736        0.4516152969       -0.1845950909
 C          6.3041265207       -0.8067343573       -0.1147702614
 C          7.3306004185       -1.1282396922       -0.9888531458
 C          7.7673269366       -0.1923773722       -1.9144862925
 C          7.1874967257        1.0663355017       -1.9725926410
 C          6.1613076447        1.3947977354       -1.1010791279
 H          5.6868040744        2.3621808311       -1.1039588156
 H          7.5316962982        1.7915949971       -2.6921793234
 H          8.5667963772       -0.4448745279       -2.5930718190
 H          7.7852142987       -2.1048670821       -0.9445208128
 H          5.9395094094       -1.4992943937        0.6270094675
 H          3.2654706863       -0.2514472406       -0.6988990705
 H          2.1089272636        2.0486013936        1.8405204484
 H         -0.1093783431        1.8094722144        2.9198768904
 H         -1.6343803168        0.0022246590        2.2196614105
 H         -1.4146126301       -2.5302191343        1.2337506230
 C         -0.8206886170       -2.7137879550       -0.8128076286
 C          0.1047852943       -3.8733021910       -0.6007602128
 C         -1.3354693062       -4.1150975670       -0.9368212489
 H         -1.5816140364       -4.4893113861       -1.9191532028
 H         -1.9934022638       -4.4709717012       -0.1572035824
 H          0.8464278405       -4.0876414014       -1.3556390121
 H          0.4301996041       -4.0751701358        0.4087382306
 H         -0.7217261919       -2.1349662032       -1.7240140495
