  62
        -98.94671069
 C         -1.9899336875       -1.4546446824       -0.1000183274
 C         -1.7194050706       -0.2119148426       -0.7193235964
 C         -2.8755355596        0.6758333432       -0.9058336042
 C         -4.0965170179        0.2559114711       -0.5272766597
 C         -5.3488711114        1.0787615599       -0.6094208780
 C         -5.5842199760        1.8625182651        0.6897367203
 C         -4.3554194241        2.6267666262        1.1830036005
 H         -4.6489777844        3.1627598989        2.0881742598
 H         -3.5819959509        1.9107901179        1.4704444695
 C         -3.7735571974        3.6197273428        0.1671494356
 H         -3.5527416985        4.5570888798        0.6819218886
 H         -4.5148337395        3.8396414451       -0.6019624578
 C         -2.4748165770        3.1590760249       -0.4975645730
 H         -1.7645486137        2.8426161299        0.2709671356
 H         -2.0399241837        4.0157051127       -1.0197536779
 C         -2.6178142637        2.0234205681       -1.5190202432
 H         -3.3954554676        2.2743865563       -2.2431338646
 H         -1.6679379070        1.9310431086       -2.0542341837
 H         -6.4081409821        2.5598035221        0.5273345439
 H         -5.8844852146        1.1580499692        1.4689571847
 H         -5.2725885552        1.7641401094       -1.4513001751
 H         -6.1923009842        0.4065208151       -0.7756238048
 O         -4.3227938874       -0.9630191627        0.0270286796
 C         -3.2776917846       -1.8385265957        0.2735034529
 O         -3.6167550743       -2.9066956708        0.8216553193
 H          1.8753266701       -2.1105811996       -0.2682604488
 C          1.5317559843       -1.6712077032        0.6526445099
 C          0.1971652633       -1.7369092808        1.0186567477
 C         -0.1946923132       -1.1509251868        2.2207799582
 C          0.7224288784       -0.5058733233        3.0265884793
 C          2.0510995412       -0.4226764067        2.6461328420
 C          2.4541628736       -1.0080250971        1.4529790532
 N          3.8026945099       -0.9624535013        1.0518934895
 S          4.2128712540       -0.3226985966       -0.4412414464
 O          3.5841683187       -1.0802925806       -1.4908961153
 O          5.6600802855       -0.3081876301       -0.4428500263
 C          3.6073348861        1.3550521401       -0.4015352411
 C          2.2647965814        1.6023038141       -0.6055572490
 C          1.8093900560        2.9088618060       -0.5112682182
 C          2.6914622524        3.9364046735       -0.2170992445
 C          4.0372724593        3.6690441378       -0.0141419782
 C          4.5002242616        2.3666282534       -0.1016228292
 H          5.5377580242        2.1120934169        0.0439725017
 H          4.7236239800        4.4689444697        0.2129906033
 H          2.3276948651        4.9495161538       -0.1469237344
 H          0.7605624936        3.1043734181       -0.6695040308
 H          1.5858266643        0.7963615935       -0.8348494230
 H          4.4201388842       -0.5775660019        1.7534186184
 H          2.7696934812        0.0869109604        3.2701903823
 H          0.4014563949       -0.0574533949        3.9547100447
 H         -1.2351509070       -1.2099599629        2.5119819657
 C         -0.8511461211       -2.4207408206        0.1747713427
 H         -1.2832546402       -3.2428724935        0.7639469251
 C         -0.3138559167       -2.9857347933       -1.1230815507
 C          0.3420989908       -4.3325042451       -1.1403017864
 C         -1.0134028501       -4.1506364391       -1.7530878572
 H         -1.1027707435       -4.1787073781       -2.8287674189
 H         -1.8700739076       -4.5544361260       -1.2328028872
 H          0.4077838508       -4.8686341170       -0.2054560036
 H          1.1877043367       -4.4833515838       -1.7946606387
 H          0.0781334706       -2.2226179608       -1.7863957613
 O         -0.5718719669        0.1434206608       -1.0931030187
