  62
        -98.93883582
 C         -1.6725563142       -1.5213395063        0.1991280414
 C         -1.5248185701       -0.2122224311       -0.3174173817
 C         -2.5267070427        0.7763709079        0.1222542538
 C         -3.4817708433        0.4108465841        0.9937218788
 C         -4.5680440497        1.2574864395        1.6092434196
 C         -5.3048804231        2.2435316960        0.6928549494
 C         -5.4805037485        1.7726446350       -0.7581691426
 H         -5.2225661550        0.7155268220       -0.8425674059
 H         -6.5302564490        1.8744902065       -1.0399071146
 C         -4.6462251500        2.5826070632       -1.7533605088
 H         -5.0755077468        2.4616935625       -2.7509632587
 H         -4.7204347378        3.6406368724       -1.4927555208
 C         -3.1718747089        2.1907680429       -1.8437884520
 H         -3.0792027281        1.2098019850       -2.3176111886
 H         -2.6737984785        2.9101050543       -2.4981343169
 C         -2.4164268119        2.1357221942       -0.5056497439
 H         -1.3532974147        2.2792276616       -0.7136585314
 H         -2.7525944657        2.9197186108        0.1679860823
 H         -4.7867248999        3.2013198381        0.6948886263
 H         -6.2850998730        2.4166762923        1.1404178362
 H         -5.2821051357        0.5431319411        2.0262361845
 H         -4.1351968999        1.8064298426        2.4505494933
 O         -3.5660465944       -0.8567760570        1.4901253110
 C         -2.6796478314       -1.8462290108        1.1085591094
 O         -2.8872531963       -2.9560639929        1.6394524274
 H          1.4526554954       -1.5707191888       -1.5306964014
 C          1.6391155711       -1.7071019348       -0.4778276535
 C          0.6599828824       -2.2582917492        0.3324722485
 C          0.9219698567       -2.4019019213        1.6922175368
 C          2.1367839458       -2.0108266398        2.2226694876
 C          3.1103135202       -1.4528758642        1.4115944813
 C          2.8509060458       -1.2900146268        0.0577228303
 N          3.8234963130       -0.7045532341       -0.7761422581
 S          4.4552671371        0.7801685259       -0.3307217312
 O          5.1029266069        1.2851054257       -1.5201862415
 O          5.2998775508        0.6053928251        0.8246708248
 C          3.0569184677        1.8036305268        0.0879923257
 C          2.4211687940        2.4945164394       -0.9236866708
 C          1.3187225507        3.2728034040       -0.6142870393
 C          0.8637494065        3.3344698129        0.6936918582
 C          1.5075968540        2.6275957205        1.6966992086
 C          2.6176136241        1.8554620496        1.3951824378
 H          3.1513100593        1.3036092743        2.1511615235
 H          1.1478575559        2.6741732649        2.7122504439
 H          0.0020407558        3.9375412800        0.9334527949
 H          0.8155651727        3.8234189759       -1.3931742908
 H          2.8074740719        2.4240911050       -1.9277964091
 H          3.5411856542       -0.6723465442       -1.7456809333
 H          4.0607093596       -1.1343529668        1.8084298350
 H          2.3288380792       -2.1378336438        3.2774767661
 H          0.1530001551       -2.8181581289        2.3288249619
 C         -0.7058669010       -2.6285371534       -0.1896801421
 H         -1.0450094753       -3.5269774491        0.3429057889
 C         -0.7465168241       -2.8999754500       -1.6788105863
 C         -0.1586222961       -4.1708231830       -2.2121083348
 C         -1.6448553746       -3.9788464645       -2.2007142450
 H         -2.1518243587       -3.8175972970       -3.1404082985
 H         -2.2283234373       -4.5348024989       -1.4812739620
 H          0.3554986024       -4.1458060749       -3.1608941450
 H          0.2691506632       -4.8588221905       -1.4986213948
 H         -0.6526842787       -2.0043239756       -2.2806242592
 O         -0.6065158702        0.1290329403       -1.1067447037
