  62
        -98.94462786
 C         -2.6629203269       -1.2947203584        0.1258660004
 C         -2.5584341353       -0.2946318492       -0.8714498055
 C         -3.5394791194        0.7952401002       -0.7851872773
 C         -4.4792047472        0.7807981732        0.1771210218
 C         -5.5629305491        1.8054382824        0.3750857524
 C         -5.1192823824        3.0344917828        1.1801169276
 C         -4.1855061995        3.9935942356        0.4407539395
 H         -4.6246504140        4.2580789774       -0.5216226431
 H         -4.1281011865        4.9075749519        1.0350625753
 C         -2.7634978936        3.4549984332        0.2280577075
 H         -2.0357371116        4.2270790659        0.4881770783
 H         -2.5852488725        2.6128200165        0.9011110947
 C         -2.4584695392        3.0143226078       -1.2038275627
 H         -1.4387816708        2.6187752834       -1.2287332626
 H         -2.4977115023        3.8797144037       -1.8695480633
 C         -3.4047244478        1.9357367469       -1.7481966543
 H         -4.3805692306        2.3684576786       -1.9677810846
 H         -2.9784437684        1.5422425328       -2.6743091562
 H         -6.0210990241        3.5835933746        1.4600696713
 H         -4.6372526826        2.6945867667        2.0995584189
 H         -5.9483020462        2.1232454151       -0.5939831128
 H         -6.3652038349        1.3066987019        0.9229869271
 O         -4.5631093633       -0.2137388243        1.0998603956
 C         -3.6431682874       -1.2478282243        1.1202765948
 O         -3.8065679654       -2.0596877914        2.0527667847
 H          0.4209760768       -1.7674968851       -1.4497625664
 C          0.6226073950       -1.5579235406       -0.4115139691
 C         -0.3242030227       -1.8680340380        0.5511896800
 C         -0.0510885374       -1.5557803280        1.8803461028
 C          1.1415822834       -0.9531126446        2.2324653591
 C          2.0821171662       -0.6374831912        1.2665637722
 C          1.8111064589       -0.9288251351       -0.0627985670
 N          2.7523408265       -0.6006089177       -1.0533483090
 S          3.4378554561        0.9312329497       -1.0218591949
 O          2.5611985571        1.9045072291       -0.4127815012
 O          3.8429615898        1.1926043772       -2.3861198449
 C          4.8973176464        0.7123928247       -0.0233649942
 C          5.1409888534        1.5629010083        1.0370481623
 C          6.2891540760        1.3812487062        1.7925574698
 C          7.1693254706        0.3582580701        1.4752230169
 C          6.9116054457       -0.4858605785        0.4052491123
 C          5.7666265648       -0.3085938118       -0.3546759737
 H          5.5312435783       -0.9407349720       -1.1943850414
 H          7.5981142881       -1.2806443556        0.1617237398
 H          8.0611531501        0.2180707855        2.0653900560
 H          6.4909824333        2.0371247626        2.6242119556
 H          4.4249006556        2.3406408626        1.2506910967
 H          2.4453416918       -0.8313096931       -1.9877373378
 H          3.0078584765       -0.1535708868        1.5320369349
 H          1.3410978968       -0.7212118836        3.2677258324
 H         -0.7966284033       -1.7797148079        2.6311640797
 C         -1.6719559288       -2.4466807963        0.1957320760
 H         -2.0032730988       -3.0790563436        1.0298696591
 C         -1.6748956880       -3.2734102374       -1.0727755375
 C         -1.0330724696       -4.6273879679       -1.0655383523
 C         -2.5246824145       -4.5050845612       -1.1395340002
 H         -3.0171667941       -4.7398670850       -2.0713131907
 H         -3.1042309139       -4.7598775036       -0.2642502603
 H         -0.4996778826       -4.9511080425       -1.9461904705
 H         -0.5980499969       -4.9656060424       -0.1373127461
 H         -1.5992639720       -2.6788354743       -1.9746146656
 O         -1.7039040547       -0.3030560073       -1.7966996798
