  62
        -98.94044968
 C          1.4907448057        1.0995416574        0.0187131418
 C          2.5204397022        0.6173583186        0.8562421630
 C          3.0847748416       -0.6968959845        0.5105686470
 C          2.5826404238       -1.3737892096       -0.5369415922
 C          2.9652614632       -2.7436058704       -1.0400042645
 C          4.4579583193       -3.0967966481       -1.0828834029
 C          5.3929301848       -1.9203283491       -1.3999339384
 H          6.0576291809       -2.2061241618       -2.2170515944
 H          4.8101453234       -1.0616871577       -1.7374486373
 C          6.2619401715       -1.5106561234       -0.2086567662
 H          6.6381809132       -2.4135292967        0.2771038292
 H          7.1258675314       -0.9537048849       -0.5788757636
 C          5.5713078204       -0.6329695186        0.8342176424
 H          5.3909385611        0.3626690594        0.4201024907
 H          6.2550797175       -0.5104160837        1.6775859973
 C          4.2292654249       -1.1650369059        1.3634761945
 H          4.2423352323       -2.2481795042        1.4599190053
 H          4.0626678923       -0.7316836558        2.3538466899
 H          4.5751917874       -3.8714293643       -1.8426389234
 H          4.7544206316       -3.5420639002       -0.1342159036
 H          2.5457532277       -2.8019991147       -2.0474575809
 H          2.4341546065       -3.4822195455       -0.4315370779
 O          1.5719385830       -0.8810948113       -1.3050684632
 C          0.9858071666        0.3422792432       -1.0378334150
 O          0.0529992870        0.6462281446       -1.8059323823
 O          2.9393394668        1.2507563039        1.8647884598
 C          0.8437452736        2.4384442024        0.3290808702
 C         -0.6350572896        2.2294877668        0.5359868753
 C         -1.6193553871        3.0079160691       -0.0586682477
 C         -2.9587965852        2.6952095282        0.1024004919
 C         -3.3430423901        1.5898203847        0.8394511659
 C         -2.3660252910        0.8231385477        1.4591546561
 C         -1.0313366793        1.1600517642        1.3304907622
 H         -0.2787326865        0.5430422528        1.8068278086
 N         -2.7574389249       -0.3698126813        2.1391485436
 S         -2.5165148082       -1.7030378640        1.1242689722
 O         -3.0057281476       -2.8497561085        1.8619580679
 O         -1.1372038176       -1.7964342169        0.6921795950
 C         -3.5984739324       -1.3335308804       -0.2341760056
 C         -4.9343853450       -1.6634157641       -0.1090948383
 C         -5.8041710883       -1.3330560020       -1.1352522693
 C         -5.3249302521       -0.6761097423       -2.2590655068
 C         -3.9815505141       -0.3508368360       -2.3661522629
 C         -3.1030069434       -0.6791871761       -1.3445795606
 H         -2.0534209582       -0.4299788157       -1.3987998602
 H         -3.6044953104        0.1637054045       -3.2353786023
 H         -6.0017389880       -0.4144503358       -3.0571546138
 H         -6.8493896964       -1.5846388602       -1.0549620348
 H         -5.2558970886       -2.1744538709        0.7834727709
 H         -2.2203162982       -0.5271889858        2.9827799719
 H         -4.3788565369        1.3094399620        0.9386455017
 H         -3.7101510693        3.3054369641       -0.3740090458
 H         -1.3353864866        3.8513024395       -0.6666359207
 H          1.2917748605        2.7709662203        1.2774546618
 C          1.1685453011        3.4496680293       -0.7499873739
 C          1.2276862698        4.9117550730       -0.4249402319
 C          2.4897337932        4.1551226892       -0.7071216159
 H          3.0072222504        4.3376071172       -1.6369154703
 H          3.1465751040        3.9248948027        0.1191513001
 H          0.8807320769        5.6184286680       -1.1634179920
 H          1.0318994430        5.2053520154        0.5951350898
 H          0.7910473426        3.1528894499       -1.7222530128
