  62
        -98.93985992
 C          0.9086484224        1.5771407706        0.3825079039
 C          1.4959328583        0.9320150763       -0.7322085041
 C          2.3805477565       -0.2205941768       -0.4448725409
 C          2.6402784690       -0.5461520260        0.8340348459
 C          3.5317781694       -1.6404560672        1.3573551904
 C          5.0267791580       -1.3081699829        1.2186385781
 C          5.4284043249       -0.6809968038       -0.1138241090
 H          4.8465838342        0.2287205254       -0.2730688427
 H          6.4783094027       -0.3857551010       -0.0393089094
 C          5.2857063207       -1.5914086844       -1.3311228302
 H          5.6746036933       -1.0448485825       -2.1941119742
 H          5.9083575468       -2.4780512073       -1.1915829650
 C          3.8625844951       -2.0469188070       -1.6609567997
 H          3.5366997034       -2.8367635629       -0.9891113735
 H          3.8823423797       -2.4852714459       -2.6633264527
 C          2.8260380449       -0.9284028741       -1.7007165493
 H          1.9035295882       -1.3215607627       -2.1505402307
 H          3.1698179383       -0.1447291658       -2.3857636849
 H          5.5996027578       -2.2228273813        1.3797013386
 H          5.2892487954       -0.6012393903        2.0092920034
 H          3.2997340243       -1.7543455736        2.4185731877
 H          3.2936687304       -2.5791768474        0.8651348839
 O          2.1167148133        0.1570698240        1.8791517646
 C          1.2225403898        1.1914574928        1.6878964853
 O          0.7863873209        1.6910951951        2.7444556825
 O          1.3068874637        1.2722954768       -1.9302184068
 C         -0.1287304140        2.6805171407        0.2717179649
 C         -1.5164294715        2.1061451989        0.0918043527
 C         -2.6005938687        2.6561776882        0.7672026281
 C         -3.8716700307        2.1365892027        0.6035366850
 C         -4.0831949799        1.0407611319       -0.2141384056
 C         -3.0063442335        0.4800373269       -0.8896687909
 C         -1.7382798067        1.0251060759       -0.7482538381
 H         -0.9249807120        0.5883680265       -1.3045668880
 N         -3.1732529157       -0.6534668867       -1.7069898607
 S         -2.1467744301       -1.9531414206       -1.4506799469
 O         -0.8481213997       -1.7020983617       -2.0170973542
 O         -2.8648680338       -3.0881308566       -1.9910706921
 C         -2.0466487580       -2.0837163528        0.3247820764
 C         -0.9393787990       -1.5925838569        0.9843040837
 C         -0.9134698464       -1.6258233440        2.3696356577
 C         -1.9911815252       -2.1494892538        3.0665547479
 C         -3.0933692768       -2.6493967428        2.3890107900
 C         -3.1268577051       -2.6118888695        1.0049303737
 H         -3.9608937028       -2.9968280090        0.4408288752
 H         -3.9260072822       -3.0611007767        2.9361349946
 H         -1.9673736170       -2.1671888512        4.1446670433
 H         -0.0592792366       -1.2256127140        2.8936448169
 H         -0.1180077227       -1.1925025468        0.4098936517
 H         -4.1291428134       -0.9744656913       -1.7728681550
 H         -5.0709189517        0.6215182611       -0.3298118806
 H         -4.7038337205        2.5771145136        1.1306005561
 H         -2.4394179154        3.4909682181        1.4324628200
 H         -0.1107842186        3.2054003891        1.2371457833
 C          0.1570411269        3.6906895862       -0.8234489762
 C         -0.3526779238        5.0922191954       -0.6835376825
 C          1.1141551251        4.8117066538       -0.5572821240
 H          1.7750709977        5.1225218028       -1.3522813381
 H          1.5604063085        4.8629132363        0.4255394747
 H         -0.7046817982        5.6000313746       -1.5682567299
 H         -0.8957376977        5.3449610490        0.2141662336
 H          0.1670309696        3.2528672778       -1.8130741651
