  62
        -98.93786484
 C         -1.7415858063       -0.5433938873        0.5260744795
 C         -3.0102065929       -0.5493463241        1.1472695116
 C         -4.1869536358       -0.3911506899        0.2703603924
 C         -3.9912631268       -0.2580074144       -1.0549533333
 C         -5.0222527138       -0.0462605736       -2.1315607699
 C         -5.5618516655        1.3928622723       -2.1610654310
 C         -5.8903311186        1.9851342714       -0.7930209107
 H         -4.9956460923        1.9628374492       -0.1680010858
 H         -6.1550661825        3.0355582287       -0.9408728151
 C         -7.0438337024        1.3129570663       -0.0521310178
 H         -7.9462129146        1.3727403548       -0.6648258891
 H         -7.2233575896        1.8893590832        0.8591851889
 C         -6.8226227637       -0.1477811035        0.3462865966
 H         -6.9524057810       -0.8105459652       -0.5050919547
 H         -7.6044475108       -0.4103372870        1.0651379928
 C         -5.4893490358       -0.4266270939        1.0331430952
 H         -5.3667046195        0.2674509279        1.8726711760
 H         -5.5352476042       -1.4229476473        1.4897204014
 H         -6.4515339677        1.4150841965       -2.7926795497
 H         -4.8033232706        2.0285023377       -2.6247460882
 H         -5.8318176526       -0.7613540796       -2.0195128099
 H         -4.5275799417       -0.2504160884       -3.0837410259
 O         -2.7463092818       -0.2608534736       -1.6112586133
 C         -1.5976414759       -0.4030365893       -0.8539250986
 O         -0.5412909935       -0.3890457816       -1.5111497616
 O         -3.1619327072       -0.6748624339        2.3937198616
 C         -0.5054470022       -0.7157938509        1.3856392879
 C          0.4458998324        0.4478934200        1.2480542291
 C         -0.0350334334        1.7292286796        0.9975530967
 C          0.8290432801        2.7980581159        0.8484872708
 C          2.1965059834        2.6186272219        0.9625600577
 C          2.6863076223        1.3519936471        1.2429267235
 C          1.8169144092        0.2777989200        1.3846485434
 H          2.2184922363       -0.7016477078        1.5955623842
 N          4.0858234050        1.1724575000        1.3545102370
 S          4.9148796661        1.1537737588       -0.1040035269
 O          6.3079665669        0.9684656472        0.2330770400
 O          4.5823850093        2.3460712377       -0.8385880301
 C          4.2921449469       -0.2997754007       -0.9277245980
 C          3.0443467155       -0.2458481547       -1.5154409789
 C          2.5035603920       -1.4050633975       -2.0495964519
 C          3.2203364460       -2.5903650230       -1.9906492471
 C          4.4773975251       -2.6267768003       -1.4045084266
 C          5.0163431869       -1.4742722939       -0.8568129924
 H          5.9849378227       -1.4581470082       -0.3833429321
 H          5.0315496897       -3.5509227504       -1.3645039270
 H          2.7932210309       -3.4915423057       -2.4025789674
 H          1.5135965550       -1.3666693951       -2.4763085482
 H          2.5026374361        0.6855583887       -1.5487107791
 H          4.3387393365        0.3440575756        1.8768833067
 H          2.8872730867        3.4341517347        0.8252278985
 H          0.4339632530        3.7809595510        0.6396116840
 H         -1.1020303951        1.8796074090        0.9061838723
 H         -0.8743042560       -0.7355688510        2.4228621896
 C          0.1572948830       -2.0454555215        1.0777879748
 C          0.8033893628       -2.8518150900        2.1638689793
 C         -0.4914287454       -3.3061170392        1.5621669600
 H         -0.4886773564       -4.1702130338        0.9152263883
 H         -1.3923032728       -3.2035030504        2.1496291802
 H          1.6980280581       -3.4091761389        1.9291132219
 H          0.7783103669       -2.4552146951        3.1679359463
 H          0.6092690786       -2.0620914166        0.0922018212
