  62
        -98.94549320
 C          1.7548484782        1.4270967418        0.1983379236
 C          1.5357306193        0.1007882332       -0.2474996748
 C          2.5383103152       -0.8874203766        0.1786111822
 C          3.5592497035       -0.4988030625        0.9636805685
 C          4.6752765618       -1.3905528637        1.4237784497
 C          5.8552279246       -1.3555346794        0.4424199382
 C          5.4501779503       -1.5597379165       -1.0174333373
 H          6.3653427758       -1.5462386671       -1.6134908451
 H          4.8440927282       -0.7104140667       -1.3409972833
 C          4.6827972529       -2.8616490757       -1.2868555318
 H          4.8344260179       -3.5580998396       -0.4614664841
 H          5.0925367831       -3.3296097788       -2.1845335026
 C          3.1830955648       -2.6758179039       -1.5254224981
 H          2.7839514198       -3.6155704368       -1.9160086184
 H          3.0272106775       -1.9108836388       -2.2901717923
 C          2.3513606629       -2.3021250593       -0.2918768638
 H          2.5567549296       -3.0064777812        0.5164527987
 H          1.2955992748       -2.3825916832       -0.5647029890
 H          6.5706151260       -2.1263791110        0.7349097644
 H          6.3487988290       -0.3846277350        0.5282225690
 H          4.3031308948       -2.4081878436        1.5238738479
 H          5.0159126701       -1.0400152423        2.3994900967
 O          3.7175896664        0.7786986463        1.3960080769
 C          2.8260482450        1.7702556328        1.0245541965
 O          3.0877739614        2.8986246796        1.4883019241
 O          0.5633932259       -0.2456362738       -0.9668628874
 C          0.7850168197        2.5341603514       -0.1818177706
 C         -0.5710012820        2.1790003509        0.3754046126
 C         -0.7514524523        2.2051136435        1.7558935985
 C         -1.9545590083        1.8249597954        2.3188301431
 C         -2.9998506592        1.3968481190        1.5181968655
 C         -2.8251735832        1.3568129013        0.1420082913
 C         -1.6218606740        1.7600789366       -0.4232115251
 H         -1.5028767682        1.7196167537       -1.4939710052
 N         -3.8742108253        0.9077491561       -0.6824187458
 S         -4.5958532011       -0.5571745233       -0.3135773457
 O         -5.2894454625       -0.9463749037       -1.5208335261
 O         -5.4146094853       -0.3995353453        0.8627225283
 C         -3.2590500483       -1.6878981780        0.0206714862
 C         -2.5947746947       -2.2495379913       -1.0509261654
 C         -1.5377945303       -3.1100630221       -0.8086248191
 C         -1.1576731037       -3.3838673083        0.4959214781
 C         -1.8294497476       -2.8055486035        1.5611398234
 C         -2.8924941927       -1.9492177027        1.3249305584
 H         -3.4466401024       -1.4900531117        2.1268917564
 H         -1.5273987148       -3.0177509236        2.5743630968
 H         -0.3321073175       -4.0524331789        0.6841007062
 H         -1.0109032100       -3.5577772325       -1.6361015320
 H         -2.9228320359       -2.0182318581       -2.0515772986
 H         -3.6446671113        0.9359197017       -1.6657050570
 H         -3.9432987329        1.0894122920        1.9391311824
 H         -2.0809194816        1.8570363564        3.3905224411
 H          0.0725672997        2.5212371507        2.3813893958
 H          1.1407912406        3.4395940304        0.3281128195
 C          0.7996294249        2.7777303137       -1.6759733938
 C          0.2531106211        4.0609189756       -2.2238118505
 C          1.7302542268        3.8083452129       -2.2374582818
 H          2.2111204914        3.6082059229       -3.1833608880
 H          2.3507798655        4.3524391620       -1.5403167597
 H         -0.2797208342        4.0386032289       -3.1624094290
 H         -0.1318351534        4.7802854868       -1.5169414988
 H          0.6571435734        1.8734290529       -2.2556954611
