  62
        -98.94110834
 C          0.7750284491        1.2086852235       -0.0013600928
 C          1.4843418886        0.5121479276        1.0039774149
 C          2.4435807252       -0.5049086839        0.5413955316
 C          2.5697918645       -0.7408767491       -0.7757638101
 C          3.5174461212       -1.6849470386       -1.4737702298
 C          4.9613690725       -1.7467072857       -0.9545925070
 C          5.5115135786       -0.4291515686       -0.3892614844
 H          6.4713504780       -0.2129154236       -0.8620138893
 H          4.8373634071        0.3945657888       -0.6296229610
 C          5.7350267676       -0.4785983894        1.1242605210
 H          6.1882423232       -1.4388924807        1.3801380385
 H          6.4477191664        0.3019740981        1.4012884203
 C          4.4846957460       -0.2724866073        1.9789944470
 H          4.7522685743       -0.4649357590        3.0209819737
 H          4.1624444283        0.7706064510        1.9201152267
 C          3.2781708736       -1.1507514680        1.6095974709
 H          2.6356823389       -1.2243673208        2.4918213683
 H          3.5936162470       -2.1520076767        1.3260851539
 H          5.0406395666       -2.5181898220       -0.1898629987
 H          5.5830977868       -2.0702984930       -1.7910681184
 H          3.0935124991       -2.6916925418       -1.4496314148
 H          3.5187661934       -1.3604645411       -2.5168462281
 O          1.7910499839       -0.1154656056       -1.7022694600
 C          0.8874312480        0.8737800559       -1.3496576288
 O          0.2672414001        1.3671145937       -2.3091097769
 O          1.3383957389        0.7407323707        2.2353632153
 C         -0.1194687672        2.3691949345        0.3969634320
 C         -1.5359369638        2.1306831375       -0.0574229417
 C         -2.2205117849        2.9759270186       -0.9205106330
 C         -3.5178136823        2.6828466578       -1.3027005618
 C         -4.1556958597        1.5491859590       -0.8357464026
 C         -3.4826416140        0.7027211886        0.0394490542
 C         -2.1851667175        0.9997511538        0.4240401319
 H         -1.6711436596        0.3473390317        1.1157605983
 N         -4.1131976754       -0.4428023614        0.5416594972
 S         -3.2484486325       -1.7506960958        1.0887445070
 O         -4.1981397787       -2.8435164444        1.0471554523
 O         -2.6829441772       -1.4723203917        2.3853954625
 C         -1.9471542170       -2.0695205049       -0.0898015389
 C         -0.7602170243       -2.5857680142        0.3877994520
 C          0.2333088880       -2.9338439786       -0.5117381562
 C          0.0299002231       -2.7456979823       -1.8696781496
 C         -1.1614979219       -2.2118104064       -2.3334336915
 C         -2.1660369697       -1.8794248001       -1.4392753003
 H         -3.1022185873       -1.4713309695       -1.7835809337
 H         -1.3100185336       -2.0517145404       -3.3890998925
 H          0.8040877667       -3.0093105041       -2.5727533570
 H          1.1581425620       -3.3482060113       -0.1437767676
 H         -0.6335830164       -2.6980481558        1.4531213643
 H         -4.9857572046       -0.6977729054        0.1048348494
 H         -5.1658088464        1.3188419685       -1.1375388761
 H         -4.0374114481        3.3442775966       -1.9790198056
 H         -1.7373673085        3.8595333968       -1.3021660569
 H         -0.1144046132        2.3763340168        1.4970656518
 C          0.4734394860        3.6710793481       -0.1022499307
 C          0.1368876215        4.9613101057        0.5817370884
 C          1.5041761032        4.3670820310        0.7329306282
 H          2.3345075489        4.8458463960        0.2356317893
 H          1.7650786476        3.9142158208        1.6785568398
 H          0.0297495720        5.8519192499       -0.0186523365
 H         -0.5315601104        4.9167778362        1.4281799095
 H          0.6147727302        3.6819805216       -1.1773380606
