  62
        -98.93908914
 C         -2.1773116101       -1.0671619302        0.5289461813
 C         -2.3910571507       -0.3114755479       -0.6470643738
 C         -3.1853989598        0.9230446241       -0.4997193995
 C         -3.6234142383        1.2889655136        0.7190568782
 C         -4.4082589333        2.5016084263        1.1751275025
 C         -5.1306934937        3.3903238563        0.1658219094
 C         -6.3081437711        2.7253024798       -0.5461866905
 H         -7.1079599983        2.5648287110        0.1810495013
 H         -6.6816569147        3.4167766654       -1.3045538643
 C         -6.0073142885        1.3811291935       -1.2044072442
 H         -5.7318546825        0.6516685614       -0.4400837927
 H         -6.9289983664        1.0247449537       -1.6721376052
 C         -4.9217809522        1.4075101616       -2.2787623655
 H         -5.1639060822        2.1631265051       -3.0284670054
 H         -4.9245328217        0.4325289742       -2.7731866451
 C         -3.4918767317        1.6623170025       -1.7700328989
 H         -2.7912145932        1.2830993962       -2.5199193886
 H         -3.2948992702        2.7254496839       -1.6524196431
 H         -5.5235761288        4.2418222048        0.7282744976
 H         -4.4247624065        3.7902576312       -0.5562331389
 H         -5.1328645466        2.1281912676        1.9058119012
 H         -3.6982932544        3.1211018355        1.7347915685
 O         -3.3384500980        0.5547445170        1.8358746701
 C         -2.6221377860       -0.6268633600        1.7731322825
 O         -2.4434782314       -1.1787811621        2.8789775372
 H          0.2495615628       -0.6608465283        1.6559712917
 C          0.7352198554       -1.1226369208        0.8039329532
 C          0.0315581889       -2.0606258772        0.0572359965
 C          0.6607206632       -2.6461513191       -1.0321815011
 C          1.9551730107       -2.2862248286       -1.3677446040
 C          2.6495242938       -1.3498256154       -0.6245947836
 C          2.0309950822       -0.7624512598        0.4719899678
 N          2.7347223322        0.1823364865        1.2443078675
 S          3.3603970735        1.5183773016        0.4368849795
 O          3.4699257326        2.5513645241        1.4446177904
 O          2.5806216780        1.8440453907       -0.7351986267
 C          4.9949780753        0.9952762696       -0.0369258183
 C          5.8566553107        0.5738306075        0.9569818450
 C          7.1335183672        0.1656295492        0.6061280637
 C          7.5254906570        0.1880802425       -0.7242583796
 C          6.6497207411        0.6176997992       -1.7095586989
 C          5.3703934879        1.0264844788       -1.3656021489
 H          4.6523051380        1.3618738182       -2.0969919265
 H          6.9560663611        0.6349630509       -2.7431170949
 H          8.5195675131       -0.1310356981       -0.9949484123
 H          7.8172769701       -0.1689477543        1.3695191178
 H          5.5127987310        0.5753618303        1.9778023014
 H          2.2255486920        0.4837299522        2.0633502133
 H          3.6561433758       -1.0667501496       -0.8854649897
 H          2.4300469833       -2.7427053057       -2.2226943688
 H          0.1344310250       -3.3737484554       -1.6272484062
 C         -1.3868326388       -2.3637690786        0.4770723567
 H         -1.3591296729       -2.7403797631        1.5100060667
 C         -2.0833644495       -3.3842731233       -0.3967128160
 C         -1.8412416469       -4.8464451151       -0.1769454934
 C         -3.1572558018       -4.2391707017        0.2034241433
 H         -4.0261951961       -4.4700403659       -0.3942891313
 H         -3.3748863556       -4.1003432913        1.2527473601
 H         -1.8087446037       -5.4990205297       -1.0360949031
 H         -1.1650239297       -5.1265519044        0.6164347983
 H         -2.2328023142       -3.0344183173       -1.4111728034
 O         -1.9420950795       -0.6443239354       -1.7742106941
