  62
        -98.94296172
 C         -2.0092766970       -0.4849631526        0.0665175905
 C         -2.6585511289        0.7759039824        0.1392720585
 C         -4.0258751325        0.8379880995       -0.3859860951
 C         -4.5832318518       -0.2637849004       -0.9195506194
 C         -5.9600261239       -0.3612661547       -1.5183326603
 C         -7.0733441874       -0.5940696474       -0.4877896070
 C         -7.4155439585        0.6142627383        0.3847304010
 H         -7.6031580202        1.4795839833       -0.2517628270
 H         -8.3486049973        0.3819730460        0.9019500927
 C         -6.3468707647        0.9638969187        1.4298598242
 H         -5.6748231880        0.1129697569        1.5630230859
 H         -6.8261984146        1.1465905159        2.3943084562
 C         -5.5148692146        2.2025000237        1.0967471355
 H         -4.7668975896        2.3351098733        1.8828203562
 H         -6.1572998627        3.0859428167        1.0920746590
 C         -4.7791382982        2.1263977127       -0.2475225089
 H         -5.4847476850        2.2448352777       -1.0697089575
 H         -4.0530640290        2.9422028193       -0.2884192333
 H         -6.7892255429       -1.4346129126        0.1494355357
 H         -7.9714604936       -0.8829977828       -1.0384595890
 H         -5.9416137140       -1.2117904230       -2.2030940368
 H         -6.1750212702        0.5415292105       -2.0907419511
 O         -3.9238692565       -1.4475112691       -0.9922892559
 C         -2.6360474366       -1.5982381496       -0.4947043265
 O         -2.1911590550       -2.7549153191       -0.6262363319
 O         -2.1177815488        1.8045686411        0.6281271837
 C         -0.6042427195       -0.5561112974        0.6390715486
 C          0.4507216910       -0.4458324337       -0.4360111497
 C          0.5374180361       -1.3709574265       -1.4720537816
 C          1.5168345035       -1.2479982344       -2.4400075200
 C          2.4416318687       -0.2194098185       -2.3821037450
 C          2.3682828529        0.7051340514       -1.3482845149
 C          1.3697677384        0.5923821826       -0.3897626918
 H          1.3203438138        1.3272010702        0.3996248233
 N          3.3018570077        1.7559496721       -1.2469153573
 S          4.2227904448        1.8461940156        0.1494880734
 O          3.3745439189        2.1131747134        1.2815434545
 O          5.2460142741        2.8261096059       -0.1370067202
 C          4.9573057259        0.2262005095        0.2925181706
 C          6.2192714576        0.0185402193       -0.2294394265
 C          6.7628837984       -1.2550585416       -0.1847837902
 C          6.0332857043       -2.2971263677        0.3672908519
 C          4.7661534458       -2.0730917927        0.8833759754
 C          4.2193129526       -0.8000663472        0.8485143980
 H          3.2377708075       -0.5931804144        1.2423605664
 H          4.1965481402       -2.8827464501        1.3104372674
 H          6.4538243488       -3.2899047239        0.3970511748
 H          7.7492706217       -1.4315685808       -0.5825230387
 H          6.7511869571        0.8585776872       -0.6461571083
 H          3.9050562858        1.8413228045       -2.0534060847
 H          3.2107196413       -0.1291592813       -3.1344304771
 H          1.5674869481       -1.9673868398       -3.2430835784
 H         -0.1774090319       -2.1780178581       -1.5155674210
 H         -0.5138632360        0.3330020730        1.2787179089
 C         -0.3569127912       -1.7836230215        1.4947855243
 C          0.6824672650       -1.7177374070        2.5718707804
 C         -0.7714183932       -1.7676025099        2.9338340241
 H         -1.1681901795       -2.6741638516        3.3652660848
 H         -1.2334720342       -0.8665608671        3.3111284250
 H          1.2876894546       -2.5910351997        2.7603118657
 H          1.2019310638       -0.7805537764        2.7124411238
 H         -0.4707076211       -2.7149368488        0.9558255722
