  62
        -98.93587693
 C         -2.3706854728       -1.2178006859        0.0185960504
 C         -3.3333225765       -0.6669125124        0.9062217442
 C         -4.3120587313        0.2597130654        0.3253375230
 C         -4.2735461798        0.5209579826       -0.9931198685
 C         -5.2238275161        1.3935946581       -1.7694911985
 C         -5.2097173592        2.8944450758       -1.4207109872
 C         -6.2555608026        3.3114960681       -0.3792801836
 H         -6.6810488278        4.2726312282       -0.6750500936
 H         -7.0730170139        2.5896457239       -0.3941698922
 C         -5.7424089340        3.4732890980        1.0547539370
 H         -5.2099234695        4.4234963963        1.1376779115
 H         -6.6101445663        3.5243668260        1.7159462771
 C         -4.8018996639        2.3771022803        1.5562388148
 H         -3.8118655083        2.5111679244        1.1136610714
 H         -4.6765346099        2.5022654195        2.6335280863
 C         -5.2709889790        0.9396160697        1.2585826372
 H         -6.2768463297        0.9407968982        0.8413282284
 H         -5.2798129806        0.3523469909        2.1788656881
 H         -4.2105422223        3.1827594868       -1.0951258397
 H         -5.4166565468        3.4348605016       -2.3458298252
 H         -4.9427407780        1.2683569841       -2.8172184171
 H         -6.2366782549        1.0031550876       -1.6471286110
 O         -3.3462612771       -0.0389708714       -1.8145797628
 C         -2.3677423139       -0.8991607211       -1.3390635635
 O         -1.5869799222       -1.2924588660       -2.2308107575
 O         -3.3791012330       -0.9508026969        2.1325159238
 C         -1.3590123183       -2.1739657110        0.6279851670
 C         -0.0315171500       -1.5000610524        0.8846978325
 C          0.4716897308       -1.3886725756        2.1756065452
 C          1.6970303989       -0.7875288081        2.4044751423
 C          2.4414685164       -0.2805608500        1.3545790714
 C          1.9467496495       -0.3847020159        0.0609440775
 C          0.7224277112       -0.9975498956       -0.1662886297
 H          0.3408331335       -1.0730697908       -1.1739350720
 N          2.6767746125        0.1538155681       -1.0122883314
 S          4.3064164670       -0.2209746206       -1.1455559863
 O          4.6265247689       -0.0378720161       -2.5442899003
 O          4.6010371486       -1.5191539579       -0.5840042920
 C          5.1138826299        1.0510545335       -0.1958927254
 C          6.0046276767        0.7061242628        0.8017014114
 C          6.6279145612        1.7137282948        1.5215176104
 C          6.3517828800        3.0410555360        1.2315937427
 C          5.4569334477        3.3708192945        0.2243796401
 C          4.8314396628        2.3684614965       -0.4995991003
 H          4.1322127163        2.5821517337       -1.2908673575
 H          5.2443779820        4.4041389773        0.0019014780
 H          6.8364825172        3.8236077138        1.7937180536
 H          7.3239275559        1.4594625008        2.3046594073
 H          6.1831694162       -0.3394866397        0.9957008925
 H          2.2095377907        0.0555611047       -1.9023534645
 H          3.3951164860        0.1909042935        1.5270164914
 H          2.0757801334       -0.7090412217        3.4120459299
 H         -0.1102289883       -1.7684404864        3.0026541531
 H         -1.7838650514       -2.4516136075        1.6020135631
 C         -1.1642502243       -3.4393705893       -0.1852211379
 C         -0.6239140678       -4.6618386461        0.4914183834
 C         -2.0585748068       -4.6156434008        0.0600956650
 H         -2.3658094404       -5.2133189118       -0.7849400228
 H         -2.8171371050       -4.5155480551        0.8226940461
 H          0.0596883338       -5.2926497877       -0.0559169137
 H         -0.4099241546       -4.5952780651        1.5473376173
 H         -0.8587112323       -3.2533163552       -1.2068025607
