  62
        -98.94090680
 C         -2.2782370266       -0.5432121967        0.1327860902
 C         -3.5568385248       -1.0626543079        0.4474502440
 C         -4.6309121540       -0.0736329254        0.6063089877
 C         -4.3439460587        1.2343933871        0.4736759901
 C         -5.3497240028        2.3450041898        0.5607011217
 C         -5.9309736381        2.6775322718       -0.8206278978
 C         -6.4149976152        1.4532849590       -1.5977833570
 H         -6.8334588358        1.8116224994       -2.5408144121
 H         -5.5553073221        0.8264086637       -1.8458701294
 C         -7.4633135325        0.6076048612       -0.8613367019
 H         -7.9111248284        1.1914890110       -0.0564804828
 H         -8.2621968559        0.3536724341       -1.5611627410
 C         -6.9311147691       -0.7104288416       -0.2958025156
 H         -7.7864201585       -1.3216774976        0.0039360703
 H         -6.3974299740       -1.2555683202       -1.0783887360
 C         -6.0068931930       -0.5892987702        0.9224336093
 H         -6.4836259585        0.0278913301        1.6864914188
 H         -5.8628190389       -1.5936457774        1.3312779189
 H         -6.7580393179        3.3772819914       -0.6875210278
 H         -5.1570359172        3.1738301469       -1.4108367355
 H         -6.1470637944        2.0535091220        1.2415127473
 H         -4.8497370400        3.2301966304        0.9573634683
 O         -3.0974175585        1.6972403247        0.1963906006
 C         -2.0354728138        0.8243635331        0.0083177049
 O         -0.9528482152        1.3831418611       -0.2547724872
 O         -3.7864516781       -2.2932479156        0.5938122853
 C         -1.1238680189       -1.5083094687       -0.0686539776
 C         -0.0087463318       -1.1824519011        0.8931730925
 C         -0.3000817514       -1.1207115293        2.2541123732
 C          0.6816372893       -0.8058188676        3.1722489814
 C          1.9729628788       -0.5389138929        2.7517879852
 C          2.2782954216       -0.6104363119        1.3983403651
 C          1.2918912429       -0.9438849604        0.4793544202
 H          1.5522849659       -0.9861727155       -0.5639382366
 N          3.5993167817       -0.3917966489        0.9596920893
 S          3.8937472036        0.5460770156       -0.4142564828
 O          3.4008771582        1.8926343181       -0.2234048937
 O          3.4267845561       -0.1560684777       -1.5815770881
 C          5.6779580585        0.5425414689       -0.3930920518
 C          6.3350512930       -0.6099165455       -0.7807704656
 C          7.7200022175       -0.6352184695       -0.7464659714
 C          8.4214764612        0.4858712909       -0.3275724318
 C          7.7485534754        1.6358335767        0.0561825676
 C          6.3628886306        1.6670074777        0.0256063540
 H          5.7970403788        2.5404128715        0.3079339179
 H          8.2961050812        2.5069509051        0.3782567750
 H          9.4995455011        0.4639624448       -0.3026901655
 H          8.2469009784       -1.5265746591       -1.0466230879
 H          5.7483099578       -1.4527502862       -1.1065083076
 H          4.1898358027       -0.0600379890        1.7122814756
 H          2.7383134055       -0.2785764921        3.4675941764
 H          0.4397792584       -0.7569823677        4.2234774391
 H         -1.3134823405       -1.3148494085        2.5792232720
 H         -1.5236149849       -2.5004811992        0.1896526958
 C         -0.6940214141       -1.5210483924       -1.5199895517
 C         -0.0515060390       -2.7422033478       -2.1041807855
 C         -1.4490285726       -2.3701883625       -2.4965485251
 H         -1.6227070421       -1.9828364263       -3.4893732014
 H         -2.2646790931       -2.9631413095       -2.1089249372
 H          0.7410766704       -2.6079665686       -2.8248878800
 H          0.0822485010       -3.5935413590       -1.4540799681
 H         -0.3499238675       -0.5506287051       -1.8633150732
