  62
        -98.93899318
 C          1.9033521097        0.2704743401       -0.0024956694
 C          2.9775755696        1.0065812207        0.5489210098
 C          4.2779924398        0.3195885710        0.6313536503
 C          4.3811731299       -0.9504105494        0.1969721613
 C          5.5529439500       -1.9102024492        0.1948609720
 C          6.9757811900       -1.4087448188        0.4281905014
 C          7.5301381697       -0.5173634396       -0.6825051994
 H          7.6826627497       -1.1290220104       -1.5753679989
 H          8.5060608397       -0.1436318492       -0.3650297098
 C          6.6503022395        0.6653911899       -1.0795879003
 H          5.7093382195        0.2993994594       -1.4956561799
 H          7.1632307493        1.2103477193       -1.8768236608
 C          6.3452865295        1.6585134808        0.0401074889
 H          5.8544855593        2.5237632303       -0.4134392418
 H          7.2783135195        2.0019075713        0.4909579085
 C          5.4235130497        1.1366227816        1.1561454395
 H          4.9786521396        2.0009350519        1.6577061788
 H          5.9828383599        0.5783022423        1.9029550199
 H          7.6117378301       -2.2963256186        0.4865760421
 H          7.0463379600       -0.9080744780        1.3892443210
 H          5.3213795303       -2.6619274686        0.9576536227
 H          5.5096481300       -2.4281685300       -0.7685883075
 O          3.3090688799       -1.6270138200       -0.3108693180
 C          2.0569373898       -1.0454974503       -0.4337526083
 O          1.1946924099       -1.7932093308       -0.9320395876
 H         -1.6542855503       -0.5574178113       -0.9251643183
 C         -1.5130131902       -0.5304731903        0.1414840017
 C         -0.4601200102        0.1748469303        0.7006413209
 C         -0.2992605901        0.1513774015        2.0848219909
 C         -1.1654552699       -0.5668099480        2.8846896616
 C         -2.2167035198       -1.2706369686        2.3221407124
 C         -2.3854459600       -1.2566158898        0.9431813824
 N         -3.4269085399       -1.9879422805        0.3509580631
 S         -4.3686110502       -1.3454276116       -0.8685298473
 O         -5.4775641900       -2.2660708019       -0.9884458664
 O         -3.5858435403       -1.1286322825       -2.0574643476
 C         -4.9478457703        0.2085580088       -0.2121614186
 C         -6.1001925402        0.2117327393        0.5500220816
 C         -6.5284436604        1.4020748797        1.1144264206
 C         -5.7949210506        2.5621718196        0.9161324595
 C         -4.6395433506        2.5416975892        0.1503638894
 C         -4.2079907005        1.3548731088       -0.4212798096
 H         -3.3176097706        1.3033366884       -1.0255190097
 H         -4.0706684608        3.4444872191       -0.0050694214
 H         -6.1263553707        3.4885351000        1.3581080888
 H         -7.4290591003        1.4218490401        1.7067023107
 H         -6.6443718801       -0.7110535107        0.6699141924
 H         -3.9970189398       -2.5048430500        1.0041818336
 H         -2.8918740096       -1.8387146282        2.9439983829
 H         -1.0256760097       -0.5785519270        3.9550622816
 H          0.5262020299        0.6971444720        2.5209633504
 C          0.5448253496        0.9399027698       -0.1228908798
 H          0.6734873995        1.9342747302        0.3284630093
 C          0.1569698194        1.1142092885       -1.5751966299
 C         -0.7977823708        2.2010611080       -1.9662707007
 C          0.6544822991        2.3161538879       -2.3184920510
 H          0.9482341290        2.1982455571       -3.3508008109
 H          1.2594645591        3.0234870285       -1.7701990117
 H         -1.1742382808        2.8383043086       -1.1801076312
 H         -1.5045671309        2.0047664472       -2.7591443505
 H          0.1153767395        0.1780461980       -2.1208742291
 O          2.8557338195        2.1897813010        0.9655003089
