  62
        -98.93923664
 C         -0.9647555496       -1.2391184430       -0.3193920190
 C         -2.0574271268       -1.4276327237        0.5654557682
 C         -2.9842867702       -0.2988758968        0.7384850071
 C         -2.7609570098        0.8444562657        0.0645432215
 C         -3.4972448510        2.1665081602        0.0967158225
 C         -4.9423966195        2.2429195440        0.5860602651
 C         -5.9530391715        1.4642579641       -0.2533215138
 H         -6.9314410649        1.5580491388        0.2235674488
 H         -6.0198299056        1.9252369259       -1.2419787100
 C         -5.6410116461       -0.0172437475       -0.4525202265
 H         -6.4701316548       -0.4607355063       -1.0108769884
 H         -4.7468109629       -0.1252001704       -1.0699887156
 C         -5.4584742176       -0.8272474414        0.8307231231
 H         -5.4365904412       -1.8832460214        0.5487087961
 H         -6.3178998546       -0.6753088000        1.4864438146
 C         -4.1712455926       -0.5362723778        1.6260836197
 H         -4.3071499550        0.2968251551        2.3118696063
 H         -3.9369882422       -1.4204891259        2.2254936725
 H         -5.2262858740        3.2982150487        0.5479997620
 H         -5.0072239256        1.9363542119        1.6258535116
 H         -3.4435506197        2.5568896314       -0.9237729786
 H         -2.8907243664        2.8318580702        0.7200033918
 O         -1.6995020552        0.9817997701       -0.7780854178
 C         -0.7877913143       -0.0378606624       -1.0046789253
 O          0.0977605865        0.2702019351       -1.8264611266
 O         -2.2509225577       -2.5042909684        1.1921913466
 C         -0.0054671643       -2.4072215569       -0.4665172242
 C          1.1871949894       -2.2467517326        0.4465022936
 C          1.5229082304       -3.2359839634        1.3630388063
 C          2.6186970087       -3.0804985476        2.1934749446
 C          3.3936596074       -1.9372583480        2.1285211716
 C          3.0602955515       -0.9368233680        1.2204748533
 C          1.9663869818       -1.0999545080        0.3835452276
 H          1.7252266734       -0.3303085413       -0.3313432832
 N          3.7891040040        0.2553576021        1.1799782835
 S          3.8074315650        1.2709977977       -0.1410031013
 O          3.9501223456        0.5421739070       -1.3795304929
 O          4.8819993118        2.1982085316        0.1560291349
 C          2.2705238114        2.1661885954       -0.0832544186
 C          1.6284888652        2.3545351389        1.1238058732
 C          0.4721982935        3.1171648872        1.1534326936
 C         -0.0132365860        3.6842290201       -0.0143607796
 C          0.6424098848        3.4840585348       -1.2177599736
 C          1.7948313864        2.7167493166       -1.2552801806
 H          2.3220855845        2.5194343949       -2.1748596555
 H          0.2549241086        3.9110227532       -2.1287968392
 H         -0.9109520257        4.2820528575        0.0098457553
 H         -0.0467235603        3.2633484311        2.0878627768
 H          2.0265811675        1.8978402379        2.0152271384
 H          4.6370048374        0.2880191246        1.7245411009
 H          4.2463687016       -1.8125385460        2.7779921108
 H          2.8719025352       -3.8563774105        2.8998434666
 H          0.9122990203       -4.1241677115        1.4299790531
 H         -0.5687393853       -3.2883496833       -0.1292085510
 C          0.4592827101       -2.6526433528       -1.8884858875
 C          0.8853465744       -4.0328671201       -2.2863707091
 C         -0.3972442154       -3.4628606663       -2.8123466835
 H         -0.4503630340       -3.1734070866       -3.8510483746
 H         -1.3257835233       -3.8511566761       -2.4193484734
 H          1.7191114437       -4.1368442773       -2.9637546413
 H          0.8242278134       -4.8119071715       -1.5415541335
 H          1.0011470738       -1.8173553088       -2.3138663763
