  62
        -98.94067464
 C         -0.5217857423       -1.4777488260        0.5620072231
 C         -1.0580474922       -1.0181468197       -0.6642879121
 C         -2.1570100813       -0.0460241647       -0.5615137649
 C         -2.5611761467        0.3613247680        0.6553143803
 C         -3.7565272454        1.2298333527        0.9271915945
 C         -5.0471481115        0.3965243451        0.7870030922
 C         -5.9551207976        0.8339843415       -0.3627126483
 H         -6.7125412379        0.0581883448       -0.4936667931
 H         -6.4718747576        1.7526166145       -0.0771135357
 C         -5.2604365100        1.0841372433       -1.7048364400
 H         -6.0440713541        1.1222784357       -2.4645041581
 H         -4.7869732238        2.0666726755       -1.6969923635
 C         -4.2179245182        0.0409097148       -2.1267439223
 H         -4.3064128262       -0.1097613938       -3.2045622795
 H         -4.4227826085       -0.9204921278       -1.6551506495
 C         -2.7571710548        0.4445608684       -1.8493569311
 H         -2.1233699164        0.0159677054       -2.6311151392
 H         -2.6607438264        1.5315098355       -1.9044635775
 H         -5.6195472293        0.4507746481        1.7143413766
 H         -4.7671678719       -0.6504293964        0.6528013964
 H         -3.7710975294        2.0666886375        0.2342479527
 H         -3.6618359935        1.6121726607        1.9431527330
 O         -1.9739913319       -0.0544953999        1.8085131256
 C         -0.9466794961       -0.9830318223        1.7930939840
 O         -0.5031823022       -1.2814894840        2.9217976785
 O         -0.6489699635       -1.4105160264       -1.7879236938
 C          0.5654490723       -2.5353163352        0.5564456003
 C          1.7326205490       -2.1025436975       -0.2965438754
 C          2.4219885858       -2.9689172418       -1.1354694875
 C          3.4979296889       -2.5142594934       -1.8777239975
 C          3.9125621168       -1.1983384407       -1.7941883125
 C          3.2315682530       -0.3239764880       -0.9535907196
 C          2.1548385988       -0.7821253620       -0.2129537890
 H          1.6327070238       -0.1036764542        0.4462326407
 N          3.6027942806        1.0229041323       -0.8731414134
 S          3.2502039679        1.9640594923        0.4520818699
 O          4.0808379106        3.1378442165        0.2798728543
 O          3.4304089162        1.2468094115        1.6930549799
 C          1.5504333364        2.4450106357        0.2384843771
 C          0.7089336824        2.4605647029        1.3324685610
 C         -0.5851282025        2.9301173134        1.1772398414
 C         -1.0128510953        3.3710127235       -0.0649266974
 C         -0.1616495704        3.3329324275       -1.1581230752
 C          1.1352975625        2.8705632141       -1.0072897387
 H          1.8273948882        2.8363539795       -1.8320127645
 H         -0.5012545983        3.6682064381       -2.1249403536
 H         -2.0148636180        3.7535357862       -0.1771240246
 H         -1.2489624568        2.9489326310        2.0266929298
 H          1.0768122099        2.0991410620        2.2808187676
 H          4.4576724203        1.2816135036       -1.3411520898
 H          4.7504894115       -0.8448617629       -2.3750846386
 H          4.0228625903       -3.1958802528       -2.5297186984
 H          2.1152123403       -3.9991129167       -1.2118557804
 H          0.9192387666       -2.6167160978        1.5956651965
 C         -0.0222399950       -3.8680571434        0.1353042913
 C          0.5203413950       -5.1492568186        0.6913241582
 C         -0.8223019015       -4.6504404497        1.1314590414
 H         -1.7050976566       -5.1709420525        0.7915695807
 H         -0.9157430142       -4.2349592858        2.1247083010
 H          0.5565655784       -6.0168095730        0.0496670532
 H          1.3380680347       -5.0836638157        1.3932698711
 H         -0.3708326106       -3.8602052702       -0.8912768388
