  62
        -98.94571293
 C         -0.9810065381       -1.1438520133       -0.2488731963
 C         -2.0299208754       -1.2092699290        0.7063578210
 C         -2.9153990106       -0.0437465125        0.7832671028
 C         -2.6958895809        1.0101827989       -0.0228947108
 C         -3.5069738531        2.2770179970       -0.0643696868
 C         -4.7753444047        2.1789623139       -0.9236661028
 C         -5.9085964757        1.3463025512       -0.3229784224
 H         -6.1109259938        1.6876757794        0.6926489137
 H         -6.8025102189        1.5460021165       -0.9173343629
 C         -5.6487926965       -0.1665721752       -0.3175748571
 H         -6.5375930847       -0.6901259303       -0.6772979696
 H         -4.8381523016       -0.3996803044       -1.0118897286
 C         -5.3058444023       -0.7460187819        1.0548150437
 H         -6.1635177224       -0.6388207164        1.7227035216
 H         -5.1041108858       -1.8134944088        0.9350806192
 C         -4.0823806559       -0.1045143520        1.7222237938
 H         -3.7922994226       -0.7251725811        2.5733278393
 H         -4.3318197737        0.8925039550        2.0839830640
 H         -5.1442722259        3.1958212290       -1.0768602367
 H         -4.5047466792        1.7734400602       -1.9013069762
 H         -3.7772641533        2.5729653162        0.9495111012
 H         -2.8624255566        3.0447336048       -0.4956773556
 O         -1.6700638555        1.0453076911       -0.9109669350
 C         -0.7906216104       -0.0197479391       -1.0529763750
 O          0.0840005103        0.1773983467       -1.9189121269
 O         -2.2188602997       -2.2029874795        1.4572094806
 C         -0.0703152522       -2.3577483803       -0.3368248834
 C          1.1761183646       -2.1348104117        0.4851023038
 C          1.3772815307       -2.8509149345        1.6600233515
 C          2.5053313155       -2.6372279958        2.4313776096
 C          3.4457368878       -1.6976896873        2.0514972331
 C          3.2504520475       -0.9713729505        0.8805062277
 C          2.1253457763       -1.1971990369        0.1002695491
 H          1.9860843003       -0.6272746761       -0.8048329969
 N          4.1873863798       -0.0088611959        0.4880018015
 S          3.8045549982        1.2699198691       -0.5057127090
 O          3.7046984393        0.8290615871       -1.8735009200
 O          4.8584856266        2.2315731651       -0.2442309997
 C          2.2613956857        1.9656697838        0.0602581111
 C          1.9021255655        1.8855418967        1.3905695542
 C          0.7353916258        2.5059572158        1.8075764298
 C         -0.0377890581        3.2097969631        0.8984966785
 C          0.3406609802        3.2875605932       -0.4320194581
 C          1.4976899880        2.6560289595       -0.8579024893
 H          1.8123617939        2.6712925945       -1.8888621944
 H         -0.2634527620        3.8266282621       -1.1443204636
 H         -0.9422037701        3.6958379861        1.2294504468
 H          0.4335451382        2.4378616750        2.8405762534
 H          2.5169613655        1.3397435870        2.0876155946
 H          4.8959717270        0.2239943743        1.1670590711
 H          4.3248686853       -1.5225662239        2.6524614357
 H          2.6507069747       -3.2015030874        3.3398135764
 H          0.6323221500       -3.5676727783        1.9724074207
 H         -0.6369698435       -3.1721374111        0.1356240639
 C          0.2674357912       -2.7747303442       -1.7535011731
 C          0.6730187853       -4.1940705685       -2.0111621517
 C         -0.6591821760       -3.6969728303       -2.4849274919
 H         -0.8092397399       -3.5427879328       -3.5429848585
 H         -1.5434844391       -4.0341834214       -1.9636728866
 H          1.4425095909       -4.3835911990       -2.7437746659
 H          0.6901139207       -4.8704846635       -1.1699096418
 H          0.7539530045       -2.0001924144       -2.3320421107
