  62
        -98.92978975
 C          2.2146224871        0.0067268841        0.4928414761
 C          3.4512754694        0.1276583944        1.1758930637
 C          4.6492697625       -0.2923357404        0.4373674419
 C          4.5186398455       -0.8075204833       -0.7978517943
 C          5.6227573117       -1.3351265716       -1.6757431000
 C          6.6643996189       -0.3054771140       -2.1545914963
 C          7.9142903913       -0.2117408904       -1.2705133361
 H          8.0347424210       -1.1525836032       -0.7321712247
 H          8.7907510814       -0.1035663093       -1.9126171563
 C          7.9432717458        0.9531739472       -0.2763854298
 H          8.1970415669        1.8718261926       -0.8102587953
 H          8.7422615967        0.7596548514        0.4425645047
 C          6.6439405408        1.2118784600        0.4865201214
 H          6.8543295504        1.9227721620        1.2881024983
 H          5.9211129065        1.6976786224       -0.1736388883
 C          5.9842024118       -0.0485455344        1.0789504365
 H          6.6321280559       -0.9153652894        0.9582867510
 H          5.7952192608        0.0956098315        2.1446379239
 H          6.9766963927       -0.6144067394       -3.1534155763
 H          6.1916748025        0.6714684903       -2.2527470728
 H          5.1208461529       -1.7654338291       -2.5447088218
 H          6.1311480818       -2.1457659105       -1.1487728601
 O          3.3069448464       -0.9580238829       -1.3982483793
 C          2.1288530696       -0.5518297186       -0.7831461724
 O          1.1106762792       -0.7544785111       -1.4698708333
 O          3.5484728528        0.5564183525        2.3567485398
 C          0.9639584498        0.4566272028        1.2247526463
 C         -0.1307930821       -0.5718004620        1.0983447996
 C          0.0806259600       -1.8420885347        1.6298096862
 C         -0.8964789755       -2.8142573533        1.5483912150
 C         -2.1154347434       -2.5349490132        0.9552494248
 C         -2.3337043443       -1.2735022090        0.4162206319
 C         -1.3433316904       -0.3032870954        0.4856665639
 H         -1.5350010887        0.6580660726        0.0391502199
 N         -3.5494840995       -0.9612810738       -0.2121702370
 S         -4.1594524340        0.6016883863       -0.0375232643
 O         -3.6005773908        1.4477081598       -1.0618273401
 O         -3.9842554655        1.0512955467        1.3256771494
 C         -5.8879385472        0.3149296460       -0.3732448023
 C         -6.3105238786        0.2595292003       -1.6880933488
 C         -7.6472295407        0.0059678008       -1.9517058038
 C         -8.5339435358       -0.1877686883       -0.9027697870
 C         -8.0954920287       -0.1279484065        0.4115196408
 C         -6.7597526465        0.1243022763        0.6822843125
 H         -6.3753225857        0.1890001848        1.6874988635
 H         -8.7877262629       -0.2757891745        1.2246552784
 H         -9.5738598264       -0.3837718418       -1.1111392371
 H         -7.9921892793       -0.0385763030       -2.9721281433
 H         -5.5864675164        0.4247004871       -2.4690323254
 H         -4.2609669188       -1.6655420953       -0.0741787580
 H         -2.8840706834       -3.2908051555        0.8985495448
 H         -0.7142887939       -3.7954712491        1.9606429094
 H          1.0298764818       -2.0568624837        2.1025050403
 H          1.2671902174        0.4931169183        2.2854571864
 C          0.5021621631        1.8598382309        0.8613979504
 C          1.4793231887        2.9148194045        0.4400738097
 C          0.4992076410        2.3633483865       -0.5494666326
 H         -0.3261937038        2.9849212321       -0.8664642473
 H          0.8575821630        1.6968003218       -1.3184468278
 H          1.3363030320        3.9214983471        0.8028541854
 H          2.5160245406        2.6256306810        0.3461903060
 H         -0.3196886512        2.1891874490        1.4918803245
