  62
        -98.94832874
 C          0.8001896784        1.2314184804        0.0553427032
 C          1.5858834768        0.7489864382        1.1279700539
 C          2.4353063850       -0.4083892964        0.8252399716
 C          2.4043272389       -0.9555519512       -0.4035042048
 C          3.2521000810       -2.1033570657       -0.8817853343
 C          4.6604481153       -1.6883072779       -1.3319229318
 C          5.6266870752       -1.3174399721       -0.2061956491
 H          5.6351438087       -2.1110765596        0.5415691322
 H          6.6259460199       -1.2723881197       -0.6439294369
 C          5.3266297099        0.0266628815        0.4716956534
 H          4.6660754484        0.6185968101       -0.1660243360
 H          6.2539001527        0.5928791740        0.5850943930
 C          4.6959786869       -0.0903396937        1.8592812227
 H          4.4904893369        0.9174389869        2.2292127415
 H          5.4019258101       -0.5629774216        2.5459870563
 C          3.3813586392       -0.8810256172        1.8875964897
 H          3.5800758706       -1.9465655974        1.7745417843
 H          2.9020415225       -0.7164648982        2.8562817124
 H          4.5721472536       -0.8496350047       -2.0260548965
 H          5.0867409705       -2.5309602102       -1.8810507924
 H          2.7351338053       -2.5346869546       -1.7402233155
 H          3.3288771063       -2.8580792691       -0.0988487704
 O          1.5719835447       -0.5123319938       -1.3820171968
 C          0.7590979140        0.5938834209       -1.1844888976
 O          0.0630258208        0.9023213365       -2.1691791845
 O          1.5895871476        1.2697936469        2.2767786974
 C         -0.0243184245        2.4893860670        0.2525395732
 C         -1.4757070000        2.2395751858       -0.0667200368
 C         -2.2429150803        3.0933961792       -0.8488692730
 C         -3.5730527195        2.8062488003       -1.1007723890
 C         -4.1630880640        1.6688761886       -0.5827414761
 C         -3.4060983951        0.8143681412        0.2124831598
 C         -2.0767321231        1.1069785588        0.4688603875
 H         -1.4986345553        0.4432175836        1.0961260713
 N         -3.9832648934       -0.3376348748        0.7634154629
 S         -3.0832683125       -1.6602431976        1.2047077243
 O         -4.0614373316       -2.7212381924        1.3339529246
 O         -2.3183805903       -1.3780821237        2.3948270996
 C         -1.9840804519       -2.0697513619       -0.1407156022
 C         -2.2915360138       -1.7411338145       -1.4449216017
 C         -1.4493498160       -2.1686650152       -2.4590588650
 C         -0.3353492238       -2.9344452915       -2.1582428395
 C         -0.0436437163       -3.2634329209       -0.8439351860
 C         -0.8690954349       -2.8199557508        0.1751637478
 H         -0.6682567637       -3.0364346088        1.2127746823
 H          0.8221017689       -3.8605786472       -0.6071067739
 H          0.3112624420       -3.2714295681       -2.9531504688
 H         -1.6651596896       -1.8981280726       -3.4798592409
 H         -3.1637462838       -1.1482418502       -1.6666841280
 H         -4.8991271857       -0.5838557592        0.4200178090
 H         -5.1983197700        1.4408177867       -0.7849244715
 H         -4.1568010787        3.4745673982       -1.7151538705
 H         -1.7992714979        3.9818223647       -1.2665785243
 H          0.0524920318        2.7249345119        1.3250850837
 C          0.5839628401        3.6286387954       -0.5408376181
 C          0.4559307437        5.0423678286       -0.0600693780
 C          1.7777806765        4.3411327625        0.0178698248
 H          2.5641998230        4.6411112062       -0.6584895068
 H          2.1342738178        4.0230470813        0.9869106627
 H          0.3375113297        5.8279405924       -0.7910603813
 H         -0.0824352574        5.2103573274        0.8604285854
 H          0.5669554326        3.4451974075       -1.6096340882
