  62
        -98.93735999
 C         -2.2849424814       -0.6679261791        0.1524365682
 C         -3.5360569712       -1.0094624330        0.7277789921
 C         -4.7278831569       -0.5997625763       -0.0222215011
 C         -4.5870835250        0.0663918230       -1.1822812065
 C         -5.7031835159        0.5291913143       -2.0790866260
 C         -6.3184723274        1.8736503407       -1.6671220917
 C         -7.1911039047        1.8327573785       -0.4119917578
 H         -7.9351483917        1.0421254129       -0.5135518359
 H         -7.7285211279        2.7819299428       -0.3647446676
 C         -6.4101196937        1.6427402620        0.8958711417
 H         -6.7724408794        2.3523063878        1.6431691793
 H         -5.3548075662        1.8687081593        0.7257933986
 C         -6.5247640835        0.2454594075        1.5053628398
 H         -7.5590621260        0.0586969339        1.8024549061
 H         -5.9046472250        0.2113921783        2.4047732680
 C         -6.0717415669       -0.8882400793        0.5760641061
 H         -6.8104456888       -1.0496247568       -0.2087259792
 H         -5.9830193967       -1.8022914774        1.1683374782
 H         -6.9343947597        2.2184838729       -2.5008398459
 H         -5.5123436371        2.5976176340       -1.5275759918
 H         -6.4820775452       -0.2329339816       -2.1170258822
 H         -5.2737929841        0.6385878097       -3.0772560547
 O         -3.3709027939        0.3911576752       -1.6937026862
 C         -2.1916079501        0.0594578873       -1.0350480867
 O         -1.1666957310        0.4682716568       -1.6111195953
 O         -3.6501216869       -1.6273561134        1.8197240106
 C         -1.0338004496       -1.0723500109        0.9098741701
 C         -0.0669557037        0.0806306959        1.0006149904
 C         -0.4550841387        1.2279593355        1.6889048314
 C          0.3995819962        2.3063562592        1.8046689554
 C          1.6693180125        2.2564210967        1.2561932469
 C          2.0637272889        1.1193946096        0.5623994946
 C          1.1962472686        0.0433691081        0.4343827196
 H          1.5228738785       -0.8149047975       -0.1285659310
 N          3.3355043498        1.0422551756       -0.0264337895
 S          4.1182047240       -0.4519282477       -0.0455704490
 O          3.7121050332       -1.1865926314       -1.2170354334
 O          3.9352655441       -1.1219804782        1.2227426808
 C          5.8141922312        0.0718097342       -0.2243160610
 C          6.2888543970        0.3731128998       -1.4870192659
 C          7.5974448932        0.8082372218       -1.6242471802
 C          8.4048212010        0.9351601173       -0.5035033687
 C          7.9150608199        0.6276791706        0.7569630273
 C          6.6068970159        0.1930738720        0.9015375239
 H          6.1858183317       -0.0660786061        1.8596471363
 H          8.5460612154        0.7241853906        1.6257571481
 H          9.4232159019        1.2727006437       -0.6137346340
 H          7.9825455542        1.0450525329       -2.6029355284
 H          5.6272364870        0.2503808549       -2.3288099316
 H          3.9515743837        1.7915709002        0.2565526033
 H          2.3422037240        3.0950231343        1.3528413185
 H          0.0809566198        3.1903940615        2.3366060122
 H         -1.4437820043        1.2628137679        2.1270646854
 H         -1.3917485817       -1.2905561699        1.9309937830
 C         -0.3831237888       -2.3500251324        0.4017544215
 C         -1.1965526052       -3.4418538112       -0.2240204106
 C         -0.2351999725       -2.6519232676       -1.0580769942
 H          0.6779420352       -3.1256012987       -1.3897537955
 H         -0.6272734673       -1.9325292408       -1.7599885706
 H         -0.9520145021       -4.4656904654        0.0157011514
 H         -2.2534599502       -3.2628594592       -0.3584356851
 H          0.4350484589       -2.6668828160        1.0434459899
