  62
        -98.93290777
 C         -2.2839639049       -0.6842748659       -0.1021527889
 C         -3.4790151676       -1.0104529902        0.5811936022
 C         -4.7174986354       -0.4658249348        0.0096191611
 C         -4.6607335393        0.2806835399       -1.1081904113
 C         -5.8276513444        0.8639618176       -1.8609313480
 C         -6.6476512156        1.9409069874       -1.1245053210
 C         -7.8750831469        1.4020255615       -0.3792897656
 H         -8.7018370653        2.1027206479       -0.5124565850
 H         -8.1825523665        0.4635341314       -0.8421012477
 C         -7.7029677628        1.1960463711        1.1286791674
 H         -7.7679554117        2.1640786890        1.6306761651
 H         -8.5380501206        0.5866016927        1.4807201387
 C         -6.3931249473        0.5408327079        1.5669582449
 H         -6.4800411679        0.2767827837        2.6228411403
 H         -5.5785112175        1.2655892185        1.4964276579
 C         -5.9965005824       -0.7089452340        0.7570742592
 H         -5.8081315227       -1.5461882055        1.4320725735
 H         -6.7934462794       -0.9925389220        0.0713849791
 H         -5.9978133130        2.4902695862       -0.4439353972
 H         -6.9926064256        2.6466668455       -1.8817779992
 H         -5.3988161060        1.2995091455       -2.7656760026
 H         -6.4896570667        0.0495965591       -2.1640460141
 O         -3.4875876041        0.5683974167       -1.7370267248
 C         -2.2736896262        0.1097611729       -1.2485549007
 O         -1.2844385338        0.4674314236       -1.9157288563
 O         -3.5100629524       -1.7264598263        1.6183256795
 C         -0.9657007529       -1.2148856633        0.4296273733
 C         -0.0316553776       -0.0753957025        0.7534637301
 C         -0.4886108171        0.9558444219        1.5714043478
 C          0.3343658959        2.0147148439        1.9002367712
 C          1.6366658562        2.0623523571        1.4337911099
 C          2.1024342199        1.0397083691        0.6170852761
 C          1.2699839816       -0.0204696903        0.2833039910
 H          1.6601651371       -0.7983492043       -0.3509506488
 N          3.4099436433        1.0710119002        0.1070033654
 S          4.2402172951       -0.3861019585       -0.0815754723
 O          3.8715771043       -0.9815669134       -1.3410557968
 O          4.0643492873       -1.2114663303        1.0921958370
 C          5.9184253250        0.2123223398       -0.1687772013
 C          6.3853034104        0.7069709591       -1.3720543531
 C          7.6781596005        1.2017713243       -1.4362971530
 C          8.4781546457        1.1944577782       -0.3031382512
 C          7.9967467648        0.6927195887        0.8966843310
 C          6.7041337641        0.1974774966        0.9682644778
 H          6.2901819864       -0.2101629943        1.8764835898
 H          8.6223329676        0.6848821119        1.7746710785
 H          9.4843090639        1.5792381477       -0.3566323864
 H          8.0568672498        1.5895022965       -2.3682002757
 H          5.7305684478        0.6838144166       -2.2277090392
 H          3.9860078739        1.7789582530        0.5412300125
 H          2.2821278195        2.8879562650        1.6925700202
 H         -0.0365955845        2.8073051016        2.5327882628
 H         -1.5034936561        0.9136039624        1.9436980400
 H         -1.2144855299       -1.7279876632        1.3711794197
 C         -0.3761617413       -2.2259842574       -0.5304641314
 C          0.5578156921       -3.2850552005       -0.0287267161
 C         -0.8284758361       -3.6525306997       -0.4629602217
 H         -0.9530059659       -4.1980137765       -1.3862731164
 H         -1.5517619873       -3.9073548124        0.2978098282
 H          1.3925204944       -3.5707737044       -0.6518554009
 H          0.7828667696       -3.2924826448        1.0273644019
 H         -0.1872081371       -1.8069276072       -1.5132774199
