  62
        -98.94729708
 C          2.3023109474        0.6876763383        0.2255201799
 C          1.6105588568        0.0003724411       -0.8014371788
 C          1.8458032523       -1.4479735385       -0.8754100464
 C          2.5861789531       -2.0539047710        0.0693404886
 C          2.9341190600       -3.5165877089        0.1270755103
 C          1.8358739661       -4.3952597923        0.7403775582
 C          0.6291878158       -4.6509491007       -0.1628210144
 H          0.9736079366       -4.9965540141       -1.1385154708
 H          0.0586895286       -5.4643967792        0.2899725082
 C         -0.3004137368       -3.4428187344       -0.3420167904
 H         -1.3400823760       -3.7682581836       -0.2478713813
 H         -0.1307765055       -2.7168593786        0.4572542997
 C         -0.1740586219       -2.7349635639       -1.6900409524
 H         -0.4785270270       -3.4147131615       -2.4897588913
 H         -0.8635669468       -1.8884460781       -1.6854556088
 C          1.2309217342       -2.2103616144       -2.0120765373
 H          1.8810719189       -3.0393454648       -2.2940368337
 H          1.1499698006       -1.5265055754       -2.8610041988
 H          1.4988380366       -3.9354057845        1.6727413493
 H          2.2887464066       -5.3584185198        0.9879144251
 H          3.1736398712       -3.8775930580       -0.8738825091
 H          3.8282816237       -3.5970084142        0.7493161351
 O          3.1422173763       -1.3744351321        1.1078428855
 C          3.0171940118        0.0007683336        1.2089219652
 O          3.5819711207        0.4922501273        2.2084779292
 H          0.2185643966        1.2031253770        1.8299286583
 C         -0.1441946047        1.9628304622        1.1521341043
 C          0.7487253697        2.6096325153        0.3064155283
 C          0.2596164116        3.5825643245       -0.5552230421
 C         -1.0918441941        3.8839062928       -0.5749050318
 C         -1.9830017987        3.2056002608        0.2363804005
 C         -1.5018618221        2.2270089770        1.0990787813
 N         -2.3658979851        1.4700155194        1.9193733349
 S         -2.4394612381       -0.1768161516        1.6054233897
 O         -3.3986911962       -0.6997395297        2.5551131299
 O         -1.1181311909       -0.7459014537        1.6564556174
 C         -3.1306903495       -0.2786268748       -0.0368771210
 C         -2.3685145725        0.1055838291       -1.1227058398
 C         -2.9511152326        0.0906703487       -2.3820381785
 C         -4.2705566460       -0.3042551901       -2.5351009667
 C         -5.0215379019       -0.6866164650       -1.4334517689
 C         -4.4499272777       -0.6680954785       -0.1719595039
 H         -4.9936408912       -0.9528897604        0.7143606960
 H         -6.0476873443       -0.9950562478       -1.5526266091
 H         -4.7145794181       -0.3139250148       -3.5180103163
 H         -2.3581061257        0.3883482074       -3.2320000128
 H         -1.3393068153        0.4032326384       -0.9910491810
 H         -3.3073685373        1.8365416538        1.9649266636
 H         -3.0403034155        3.4212308330        0.1994453667
 H         -1.4587880246        4.6429661073       -1.2487287101
 H          0.9316974648        4.0908589061       -1.2268280125
 C          2.1965678780        2.1950627797        0.3940492368
 H          2.5324375242        2.3848766441        1.4275534066
 C          3.1176583408        2.9950181401       -0.5150161384
 C          4.3854204782        2.3978399467       -1.0473503567
 C          3.2530439049        2.7046534898       -1.9784410205
 H          3.3627998765        3.5379508826       -2.6570192420
 H          2.6787691649        1.8851224921       -2.3790010816
 H          5.2682615480        3.0184465020       -1.0831496607
 H          4.5886777468        1.3633123315       -0.8095709823
 H          3.1708690048        4.0379162441       -0.2176050031
 O          0.8502527457        0.5582371404       -1.6346181686
