  62
        -98.94731060
 C          1.9174068421        0.8723600118       -0.4493776603
 C          1.5096711649        1.6644767508        0.6542782272
 C          0.5688292682        2.7569075904        0.3476223685
 C          0.1368452760        2.9330765448       -0.9129500889
 C         -0.8599128700        3.9659133341       -1.3502731160
 C         -2.2943097955        3.4231355984       -1.2990811971
 C         -2.6667645284        2.7666416754        0.0306095599
 H         -2.0989285729        1.8425728050        0.1596712552
 H         -3.7196914367        2.4810120063       -0.0300282708
 C         -2.4480001178        3.6525998676        1.2644857094
 H         -3.3164901485        3.5575911061        1.9197027036
 H         -2.3765356991        4.7001901188        0.9671925962
 C         -1.2225352600        3.2701190049        2.0972380189
 H         -1.2401466957        2.1943811687        2.2915934662
 H         -1.2935951060        3.7788328226        3.0630501956
 C          0.1382776492        3.6342952848        1.4888627095
 H          0.8938455346        3.5026261571        2.2692513402
 H          0.1370374347        4.6843703556        1.1859805094
 H         -2.4150167794        2.6807851374       -2.0913268010
 H         -2.9794589178        4.2492489543       -1.4989743697
 H         -0.7698156970        4.8422644298       -0.7112737626
 H         -0.6270648373        4.2512143217       -2.3778117830
 O          0.5442029814        2.1522101910       -1.9458668395
 C          1.4319148793        1.1096791694       -1.7388513473
 O          1.7138976650        0.4716350649       -2.7730461618
 H          0.7196231478       -0.6937438520        1.3219662348
 C          0.9940790683       -1.5940911678        0.7950268887
 C          2.0735676699       -1.5930176637       -0.0754189563
 C          2.4176786421       -2.7809083467       -0.7108553657
 C          1.6923946770       -3.9365167182       -0.4852844421
 C          0.5890113595       -3.9218280785        0.3492997396
 C          0.2341887862       -2.7393264042        0.9869069810
 N         -0.9045620105       -2.6741540439        1.8118401543
 S         -2.0234513534       -1.4647045693        1.5027579523
 O         -1.5023047094       -0.1853622952        1.9015089413
 O         -3.2257638717       -1.9045822606        2.1769444605
 C         -2.2625447058       -1.5249818443       -0.2627983028
 C         -1.4551365560       -0.7617343564       -1.0807760034
 C         -1.5840500851       -0.8788911468       -2.4554074707
 C         -2.5213423362       -1.7514506479       -2.9863211610
 C         -3.3336958311       -2.5054964891       -2.1521412852
 C         -3.2001733457       -2.3991668110       -0.7774136676
 H         -3.8125925373       -2.9637295041       -0.0930149507
 H         -4.0645024080       -3.1789206151       -2.5700969118
 H         -2.6166479325       -1.8415716922       -4.0568935915
 H         -0.9363072176       -0.2969600893       -3.0934810523
 H         -0.7338519203       -0.0904516824       -0.6412353646
 H         -1.3789522130       -3.5592387571        1.9249969176
 H          0.0038816893       -4.8152657003        0.5054776317
 H          1.9736067208       -4.8527354246       -0.9811439492
 H          3.2518481368       -2.7909854260       -1.3958672401
 C          2.8506768213       -0.3228099171       -0.3399353904
 H          3.3200922062       -0.4272341336       -1.3286436968
 C          3.9503836902       -0.1611768716        0.6912826186
 C          5.2540116456       -0.8722369301        0.4938535831
 C          5.1807021227        0.6165097093        0.3376200742
 H          5.6261270437        1.2438379652        1.0947586150
 H          5.2403069299        1.0285114911       -0.6595352710
 H          5.3756659742       -1.4661669533       -0.3990229093
 H          5.7547252559       -1.2742025891        1.3611101044
 H          3.5767164972       -0.0643018387        1.7021769548
 O          1.8989469292        1.4951348533        1.8394233540
