  62
        -98.93594727
 C          1.9383214320        1.5144879660        0.0582201106
 C          2.1942214770        0.4966394683       -0.8906738145
 C          3.5380428905       -0.1156254894       -0.8540218021
 C          4.4254062326        0.2715157573        0.0797574513
 C          5.8569247929       -0.1520379356        0.3340575492
 C          6.4210309238       -1.4241248466       -0.2938846401
 C          5.7921468759       -2.7221517621        0.2109036033
 H          6.0816997918       -2.8669675056        1.2548002349
 H          6.2089286147       -3.5498787486       -0.3672209660
 C          4.2683090788       -2.7872066617        0.1424224897
 H          3.8381935900       -2.0369232937        0.8095063386
 H          3.9583707065       -3.7657807694        0.5196268596
 C          3.6690844112       -2.6151407577       -1.2522073442
 H          2.6043075364       -2.8543413187       -1.1830755610
 H          4.1265037285       -3.3299279080       -1.9390562660
 C          3.7895642294       -1.2049965282       -1.8569323247
 H          3.0175686883       -1.1013796870       -2.6249153438
 H          4.7528676380       -1.0631561900       -2.3408467513
 H          7.4834889887       -1.4516783390       -0.0369498961
 H          6.3612759029       -1.3699613861       -1.3769422236
 H          5.9564673564       -0.2164015564        1.4222932737
 H          6.4780800490        0.6935543047        0.0181330043
 O          4.1246848461        1.2414948945        0.9921831156
 C          2.9000931532        1.8810580889        1.0028945728
 O          2.7877993720        2.7516713947        1.8888828720
 O          1.3591393266        0.0981953128       -1.7437165478
 C          0.6265926655        2.2799609913        0.1368829696
 C         -0.4043817157        1.5283334748        0.9380869307
 C         -1.0879616031        2.1430663530        1.9801009020
 C         -2.0450293031        1.4499323266        2.7015386371
 C         -2.3430469978        0.1342807182        2.3954660823
 C         -1.6671580038       -0.4878716816        1.3533239574
 C         -0.7057870031        0.2073801925        0.6344082200
 H         -0.1854009011       -0.2795492823       -0.1771348519
 N         -1.9701215458       -1.8244283924        1.0216127511
 S         -3.5651629881       -2.1583169562        0.6279883327
 O         -4.3657562137       -2.1099171326        1.8254111190
 O         -3.5341797875       -3.4235444257       -0.0690157647
 C         -4.0402575862       -0.8452517933       -0.4799745362
 C         -3.7132718480       -0.9649946667       -1.8161906957
 C         -4.0126609628        0.0793012862       -2.6758870376
 C         -4.6171787379        1.2260129311       -2.1837885205
 C         -4.9371917885        1.3313629482       -0.8392018451
 C         -4.6485492932        0.2868037266        0.0244747030
 H         -4.8890952706        0.3268790028        1.0738234491
 H         -5.4069920791        2.2242544322       -0.4597698762
 H         -4.8381981019        2.0423557574       -2.8526357191
 H         -3.7650234807       -0.0012795759       -3.7220187056
 H         -3.2427111934       -1.8725040448       -2.1596151034
 H         -1.3604867418       -2.1959470223        0.3065467102
 H         -3.0878997657       -0.4201146311        2.9433205749
 H         -2.5634924122        1.9384961072        3.5123886907
 H         -0.8547902641        3.1672255101        2.2321214571
 H          0.8700590275        3.1989394371        0.6926234982
 C          0.1118237027        2.7076132609       -1.2325580615
 C         -1.0942295254        2.1200555952       -1.8948944368
 C         -1.1516637170        3.5096194553       -1.3409799214
 H         -1.1774719545        4.3439147597       -2.0250578952
 H         -1.7202059026        3.6594100262       -0.4356213940
 H         -1.0569979283        1.9845399482       -2.9647198827
 H         -1.6385820644        1.3443535538       -1.3802269735
 H          0.9264376046        2.9934891778       -1.8907040810
