  62
        -98.94522711
 C         -1.6043150496       -0.2333654504       -0.6040893100
 C         -2.8780821296       -0.7399567906       -0.9628513098
 C         -3.9321395296       -0.6198360305        0.0522039001
 C         -3.6302591096       -0.0914166801        1.2521553300
 C         -4.6150609196        0.1320764201        2.3623156599
 C         -5.2397088498        1.5318351000        2.2759463195
 C         -5.7654625898        1.8887758696        0.8855278895
 H         -6.2087740399        2.8846810196        0.9516269592
 H         -4.9233249598        1.9567771895        0.1932103794
 C         -6.8017669497        0.9037890294        0.3267107997
 H         -7.2153388897        0.3021082495        1.1368621699
 H         -7.6264015198        1.4725363592       -0.1080300704
 C         -6.2712275197       -0.0205439009       -0.7707785300
 H         -7.1252885096       -0.5160689411       -1.2399957599
 H         -5.7738303297        0.5737363289       -1.5412946902
 C         -5.3035349396       -1.1174657307       -0.3089522497
 H         -5.1608679695       -1.8086620009       -1.1447524295
 H         -5.7442640495       -1.6713737005        0.5224732805
 H         -6.0528932398        1.5919540402        3.0015538995
 H         -4.4806661498        2.2664743602        2.5545735893
 H         -5.3921238196       -0.6281547600        2.3107756902
 H         -4.0883205496        0.0360506204        3.3133834800
 O         -2.3884858897        0.3500717201        1.5749132399
 C         -1.3460888497        0.3015117500        0.6587210199
 O         -0.2739608097        0.7668660502        1.0875627597
 O         -3.1215555796       -1.2674397510       -2.0814295997
 C         -0.4786792696       -0.3380984906       -1.6207008800
 C          0.4913303805       -1.3931425204       -1.1477516497
 C          0.0895949406       -2.7272277304       -1.1530367893
 C          0.9389817907       -3.7200686002       -0.7058441390
 C          2.1998797607       -3.4024024700       -0.2288485391
 C          2.6078163705       -2.0753709099       -0.2129231495
 C          1.7592450104       -1.0828032001       -0.6850696898
 H          2.0928551303       -0.0611268201       -0.6764310901
 N          3.8867775705       -1.7112741697        0.2460605204
 S          3.9939552504       -0.5176541393        1.4284933100
 O          5.3191630404       -0.6969961491        1.9875176101
 O          2.8998239704       -0.6082603392        2.3661556001
 C          3.9610784403        1.0167129504        0.5284231996
 C          5.0139374302        1.2824999103       -0.3253430005
 C          5.0114113901        2.4681615901       -1.0418624008
 C          3.9634137800        3.3638255100       -0.8890541510
 C          2.9172202201        3.0827510202       -0.0236319210
 C          2.9104565402        1.8972409004        0.6959221094
 H          2.0955123102        1.6290396705        1.3512025395
 H          2.0982176300        3.7752598401        0.0921147989
 H          3.9588852399        4.2863234199       -1.4483899313
 H          5.8220078201        2.6900447300       -1.7171031609
 H          5.8099883803        0.5615014203       -0.4077955103
 H          4.4695141006       -2.4975046895        0.4991153306
 H          2.8617397607       -4.1763941698        0.1303864411
 H          0.6169862508       -4.7506500802       -0.7205182287
 H         -0.9005486394       -2.9720511306       -1.5121161392
 H         -0.9545207896       -0.7074509109       -2.5403162999
 C          0.1634061102        1.0032837194       -1.9016341804
 C          1.0428210402        1.1666422191       -3.1042576604
 C         -0.3061507698        1.8179809390       -3.0676463906
 H         -0.3600084799        2.8904483690       -2.9570082909
 H         -1.0908408898        1.4034941188       -3.6836928105
 H          1.9197545502        1.7900699592       -3.0170009906
 H          1.1734585203        0.3078402290       -3.7449400102
 H          0.4363533002        1.5396133197       -1.0012743705
