  62
        -98.93924750
 C          2.5404062067        0.2073108021        0.0417178719
 C          2.2338398712        1.2111401741       -0.9028373477
 C          1.5844039968        2.4313426693       -0.3929407612
 C          1.3272140420        2.5356582870        0.9245338350
 C          0.6946590108        3.6445176609        1.7405644350
 C          0.0961889296        4.8678140130        1.0537315346
 C         -1.2205476408        4.5999599994        0.3209308661
 H         -2.0096492726        4.4857535693        1.0681893659
 H         -1.4622086914        5.4723449395       -0.2899827237
 C         -1.2520360153        3.3522797207       -0.5590428966
 H         -2.2711681910        3.2314016200       -0.9389632589
 H         -1.0378133698        2.4634989369        0.0387918136
 C         -0.3174836909        3.3737108404       -1.7659392553
 H         -0.5642962263        4.2210641659       -2.4102840314
 H         -0.4994113462        2.4540605585       -2.3313199854
 C          1.1808511348        3.4340348677       -1.4364806077
 H          1.7352027278        3.1691014077       -2.3423751603
 H          1.4782878960        4.4404213357       -1.1526642371
 H         -0.1084388026        5.6007738116        1.8387161669
 H          0.8297037460        5.3159094842        0.3896003852
 H         -0.0746086726        3.1614423717        2.3519798586
 H          1.4752671792        3.9780925475        2.4331239559
 O          1.6822350108        1.5552026002        1.8061952024
 C          2.2310951966        0.3557450802        1.3921835066
 O          2.4136698907       -0.4702127317        2.3077511870
 O          2.4898974783        1.0916405148       -2.1342229039
 C          3.0675610958       -1.1290928097       -0.4464058971
 C          2.0236343625       -2.1930016654       -0.1977301674
 C          2.3223175067       -3.4950123083        0.1796328738
 C          1.3052663699       -4.4127439600        0.3897288753
 C         -0.0219787555       -4.0513008400        0.2553519044
 C         -0.3309515104       -2.7465795039       -0.1185253918
 C          0.6889002247       -1.8489795971       -0.3748412700
 H          0.4361524220       -0.8503355964       -0.7003118574
 N         -1.6707465066       -2.3182926264       -0.1870883748
 S         -2.0485385611       -0.6969230308       -0.3772670127
 O         -1.8059882549       -0.2504830200       -1.7336561471
 O         -1.4117306468        0.0461645625        0.6803026943
 C         -3.8055717752       -0.7727539073       -0.0840100216
 C         -4.2404829256       -0.9973577003        1.2085674573
 C         -5.6015481847       -1.0825362544        1.4533409271
 C         -6.5013606889       -0.9422817051        0.4067454305
 C         -6.0508287096       -0.7140807685       -0.8844018049
 C         -4.6898980726       -0.6293154134       -1.1354572145
 H         -4.2921478989       -0.4474372642       -2.1209242562
 H         -6.7523276127       -0.6021003724       -1.6953364365
 H         -7.5603411487       -1.0086146924        0.6000070330
 H         -5.9550285609       -1.2572615204        2.4567338214
 H         -3.5033001180       -1.0906141284        1.9894462066
 H         -2.3029416957       -2.9456593031       -0.6605024003
 H         -0.8127989924       -4.7599526155        0.4434570911
 H          1.5528036100       -5.4232873300        0.6774569616
 H          3.3502426424       -3.7912177830        0.3123686412
 H          3.1876810100       -1.0165482170       -1.5353721881
 C          4.4144435438       -1.4526398225        0.1639456798
 C          5.4211032501       -2.2552874629       -0.6036238018
 C          5.6374439934       -0.7881059285       -0.3914582965
 H          6.4079452422       -0.4707566648        0.2947615305
 H          5.4992470523       -0.1222900984       -1.2310448803
 H          6.0490690101       -2.9468219064       -0.0624784415
 H          5.1471023970       -2.5864942891       -1.5939971961
 H          4.3602702779       -1.5851647315        1.2384218101
