  62
        -98.94246361
 C          1.2150478762        1.1503858367        0.2811966939
 C          1.9383320210        0.4093060354        1.2507488474
 C          2.6931810718       -0.7490808459        0.7563389689
 C          2.6166840336       -1.0724638463       -0.5469837585
 C          3.4017543138       -2.1688375630       -1.2059492105
 C          4.7451038454       -1.6452488357       -1.7348680524
 C          5.5394611772       -0.8291360023       -0.7152703288
 H          6.4780023021       -0.5382228162       -1.1921026612
 H          4.9954958151        0.0916405869       -0.4920714587
 C          5.8400409783       -1.5695261945        0.5954373768
 H          6.8858219821       -1.4012818574        0.8612938721
 H          5.7115512785       -2.6431078524        0.4528366379
 C          4.9979751854       -1.1127785282        1.7881224034
 H          5.4312876877       -1.5423617952        2.6952917325
 H          5.0565380739       -0.0252915675        1.8829236285
 C          3.5183228531       -1.5156054742        1.7509977021
 H          3.4346414492       -2.5897734774        1.5750778691
 H          3.0894138109       -1.2929608688        2.7324387647
 H          4.5518184129       -1.0111471509       -2.6032595254
 H          5.3421095303       -2.4977271387       -2.0640112492
 H          3.5703089257       -2.9714862093       -0.4905182762
 H          2.8235480345       -2.5539253649       -2.0473839954
 O          1.8428318962       -0.3949829653       -1.4284194257
 C          1.1149668430        0.7259206066       -1.0455134023
 O          0.4432768973        1.2214617974       -1.9665226147
 H         -1.3607285375        0.7322449639        1.7486255535
 C         -1.7847989090        1.3492009751        0.9654830254
 C         -0.9789115334        2.2920343170        0.3384414244
 C         -1.5299983724        3.0702466445       -0.6704180576
 C         -2.8510665687        2.8972003077       -1.0458670348
 C         -3.6515866638        1.9600351380       -0.4177460021
 C         -3.1110196705        1.1834130530        0.5984322180
 N         -3.9261802840        0.2266090495        1.2476524460
 S         -4.3666880393       -1.1030344189        0.3311777617
 O         -5.1152240416       -0.6532241900       -0.8130112462
 O         -5.0523237708       -1.9926794708        1.2404576489
 C         -2.8234835511       -1.8345105583       -0.1822991113
 C         -2.2707014736       -2.8320208710        0.5964250878
 C         -1.0445302027       -3.3634859328        0.2328144436
 C         -0.3947771378       -2.8864271484       -0.8952594872
 C         -0.9600278597       -1.8807889253       -1.6637326621
 C         -2.1845687966       -1.3423150199       -1.3022482591
 H         -2.6461310286       -0.5537862321       -1.8744294714
 H         -0.4457677485       -1.4958659055       -2.5300149275
 H          0.5607405003       -3.2996691870       -1.1771165336
 H         -0.5978721233       -4.1441325140        0.8275100969
 H         -2.8156474842       -3.1799939679        1.4594574063
 H         -3.5310246043       -0.0991650912        2.1194024810
 H         -4.6771753799        1.8029643006       -0.7097323506
 H         -3.2633370415        3.5001344237       -1.8407109267
 H         -0.9141994222        3.7919059340       -1.1814085012
 C          0.4636822360        2.3800875933        0.7616599167
 H          0.4981032633        2.3035487034        1.8610449182
 C          1.1177396813        3.7060803872        0.4048401289
 C          2.6110762379        3.8335804316        0.3780686919
 C          1.8258709437        3.9533859435       -0.8917918731
 H          1.7319888805        4.9305989751       -1.3428688731
 H          1.8707949444        3.1477527388       -1.6068317846
 H          3.0626372269        4.7214710794        0.7942953396
 H          3.1881241727        2.9339789408        0.5375754145
 H          0.5708016517        4.5454629500        0.8238981771
 O          1.9522938398        0.7052075573        2.4761644872
