  62
        -98.94457441
 C         -2.0203157388       -1.2098797731       -0.6344219703
 C         -1.5301896600       -0.0565352178       -1.2934966593
 C         -2.2646727380        1.1934222439       -1.0395046042
 C         -3.3198838150        1.1877628852       -0.2075091920
 C         -4.1359841770        2.3925723061        0.1601244133
 C         -3.5998855626        3.0762978961        1.4246377092
 C         -2.0954172926        3.3478692087        1.3966601391
 H         -1.5503844611        2.4009001067        1.4266774980
 H         -1.8453147912        3.8828922587        2.3161274075
 C         -1.6163304208        4.1619077015        0.1866735802
 H         -0.9132572621        4.9211322052        0.5361247030
 H         -2.4587130732        4.6832602969       -0.2707730749
 C         -0.8863544943        3.3326082434       -0.8714712138
 H         -0.1370056849        2.7105682558       -0.3754329202
 H         -0.3595564659        4.0176682819       -1.5416264487
 C         -1.7755968644        2.4310925043       -1.7382415797
 H         -1.1746932804        2.0816263545       -2.5829972590
 H         -2.6152073021        3.0094789319       -2.1303631785
 H         -3.8147387513        2.4358848071        2.2834687612
 H         -4.1372824175        4.0173500874        1.5597226239
 H         -5.1617007800        2.0666804869        0.3433006307
 H         -4.1315707280        3.0934983105       -0.6726088198
 O         -3.7548798605        0.0654562186        0.4218923001
 C         -3.1089908289       -1.1445135141        0.2388291055
 O         -3.6034038279       -2.0897680882        0.8880234346
 O         -0.5401390570       -0.0480190275       -2.0695617609
 C         -1.3776663742       -2.5841579603       -0.7567541403
 C         -0.3397423282       -2.7505203753        0.3241095838
 C         -0.3388222115       -3.8576586087        1.1629288771
 C          0.5907695581       -3.9602508697        2.1834399730
 C          1.5145016195       -2.9541308713        2.3986046492
 C          1.5231828260       -1.8412096792        1.5624277360
 C          0.6173723645       -1.7638309291        0.5167496753
 H          0.6272598509       -0.9047904642       -0.1305224964
 N          2.4483843102       -0.8090598649        1.7588758615
 S          2.1029556593        0.8071473672        1.4513863938
 O          2.7548390480        1.5223638878        2.5308648601
 O          0.6871089752        1.0343398183        1.3049806542
 C          3.0015579499        1.1351441473       -0.0523131292
 C          2.3929351973        1.0620794210       -1.2882951133
 C          3.1548337118        1.3048332108       -2.4221425457
 C          4.5008027368        1.6114148981       -2.3059724159
 C          5.0980845613        1.6809676695       -1.0559812319
 C          4.3439646134        1.4407921830        0.0797742383
 H          4.7629296056        1.4988103945        1.0707673257
 H          6.1451056615        1.9213344356       -0.9644909551
 H          5.0856601506        1.7980824764       -3.1929320516
 H          2.6822540355        1.2475149029       -3.3896616815
 H          1.3448864103        0.8189582582       -1.3751810088
 H          3.0135620043       -0.9042655026        2.5894250958
 H          2.2212912434       -3.0222203960        3.2118461777
 H          0.5833120556       -4.8236899246        2.8314867669
 H         -1.0847858890       -4.6270356063        1.0269030083
 H         -2.1872176911       -3.3023300382       -0.5478564705
 C         -0.8509649720       -2.8894864846       -2.1515006311
 C          0.6048079969       -2.9580962464       -2.4904321091
 C         -0.2055480752       -4.2157023385       -2.4272141825
 H         -0.4463548203       -4.7271965029       -3.3467847302
 H         -0.0432063382       -4.8715824687       -1.5849898879
 H          0.9089663418       -2.5814491347       -3.4547854625
 H          1.3218707259       -2.7723722273       -1.7062123427
 H         -1.5052751249       -2.4970850330       -2.9230202777
