  62
        -98.93944299
 C         -0.9798480295       -1.6674562496       -0.1863963988
 C         -1.1789677396       -0.2771836496       -0.3673034193
 C         -2.3007959796        0.3249530505        0.3769636006
 C         -3.0307688494       -0.4305294693        1.2127784810
 C         -4.1771153294       -0.0150923891        2.1010493109
 C         -5.2244074795        0.9381185206        1.5081398807
 C         -5.4776500897        0.7716444101        0.0025446308
 H         -5.0090529696       -0.1464653600       -0.3556403289
 H         -6.5518315197        0.6774250899       -0.1671318790
 C         -4.9734364399        1.9582227199       -0.8223437796
 H         -5.2380510099        2.8817654000       -0.3028045799
 H         -5.4930732100        1.9631218495       -1.7833991396
 C         -3.4739336799        1.9616852199       -1.1179177698
 H         -3.2346427999        1.1681231797       -1.8303714095
 H         -3.2288555300        2.9107854798       -1.5999018001
 C         -2.5582877597        1.7788279504        0.1033585402
 H         -1.5839919298        2.2125876504       -0.1362485000
 H         -2.9574130197        2.2859093006        0.9788515701
 H         -4.9317834696        1.9681742007        1.7073229304
 H         -6.1526906095        0.7646605707        2.0552746409
 H         -4.6591027193       -0.9502021691        2.3970607713
 H         -3.7575695193        0.4307932512        3.0079989208
 O         -2.7796165793       -1.7586262792        1.3917982814
 C         -1.7683573893       -2.4013283894        0.7029128215
 O         -1.6752178892       -3.6203170093        0.9578835719
 H          1.4344833004       -0.2057208594       -0.2372245096
 C          1.9550448305       -1.0827750392        0.1087288407
 C          1.4189193606       -2.3379221793       -0.1378954889
 C          2.1030423407       -3.4584143891        0.3180292714
 C          3.2912409608       -3.3197025888        1.0137822313
 C          3.8076406307       -2.0648618587        1.2836639208
 C          3.1281652906       -0.9392370789        0.8325418505
 N          3.6128982505        0.3544746013        1.0774345600
 S          2.5262512804        1.5841901213        1.4184498297
 O          3.3100747704        2.5639862616        2.1467118493
 O          1.3599610105        1.0877713514        2.1141758800
 C          2.0813030302        2.2945141207       -0.1517531404
 C          2.7863331601        1.9905661704       -1.2973475804
 C          2.4174178299        2.5976201200       -2.4873973906
 C          1.3629672998        3.4958423599       -2.5112662708
 C          0.6707168099        3.7964994502       -1.3493648608
 C          1.0328567301        3.1916086406       -0.1572856506
 H          0.5150677302        3.3865321709        0.7693420294
 H         -0.1539410501        4.4915458301       -1.3685112609
 H          1.0736581797        3.9598573896       -3.4411568009
 H          2.9504981698        2.3603347097       -3.3943114306
 H          3.5934505502        1.2779209905       -1.2529190303
 H          4.4320402005        0.4070633715        1.6651528699
 H          4.7240887308       -1.9553081384        1.8434889507
 H          3.8137380209       -4.1971249986        1.3638316415
 H          1.6887861808       -4.4402198592        0.1410906718
 C          0.1127203805       -2.4643685497       -0.8842983687
 H         -0.2041649594       -3.5150683397       -0.8298924783
 C          0.2975472504       -2.0911876902       -2.3427967688
 C          0.9248620503       -3.0837239504       -3.2728814486
 C         -0.5360430497       -2.7682984506       -3.3867307585
 H         -0.8772352298       -2.1862488509       -4.2294613187
 H         -1.2462128096       -3.5121005405       -3.0546704282
 H          1.5905119002       -2.7197605606       -4.0400595188
 H          1.2043439005       -4.0442236703       -2.8669962583
 H          0.5264938002       -1.0441454602       -2.4892629292
 O         -0.4706906698        0.4547935002       -1.1076491196
