  62
        -98.94274388
 C         -1.7863776589       -1.5169236937        0.2437443493
 C         -1.4499872665       -0.1602554356        0.0011990463
 C         -2.4727458575        0.8246488245        0.3873181663
 C         -3.6204250336        0.4225154436        0.9592783092
 C         -4.7470624000        1.3117624236        1.4106964098
 C         -5.7205291640        1.7020141883        0.2898904676
 C         -5.1793414187        2.7145686189       -0.7205009686
 H         -6.0291935047        3.0605442389       -1.3123404645
 H         -4.7805450005        3.5787771076       -0.1884696317
 C         -4.1120849873        2.1545011278       -1.6713292838
 H         -4.3365126654        2.4664104707       -2.6939781737
 H         -4.1483976344        1.0626355337       -1.6561721757
 C         -2.6856086453        2.6080967280       -1.3602244308
 H         -2.0103839143        2.1261372615       -2.0719021878
 H         -2.6081525883        3.6884086730       -1.5008271636
 C         -2.2081748001        2.2621976829        0.0562343777
 H         -1.1274319195        2.4125298343        0.1013284872
 H         -2.6887699514        2.9146192054        0.7845581620
 H         -6.0324763301        0.7953166612       -0.2339849406
 H         -6.6064623902        2.1319238834        0.7631104344
 H         -4.3416608592        2.2126770630        1.8719245187
 H         -5.3005622943        0.7524203936        2.1680639308
 O         -3.8853660611       -0.8861113254        1.2180795942
 C         -2.9861473275       -1.8781072354        0.8650654445
 O         -3.3616111708       -3.0309567986        1.1597348390
 O         -0.3716694156        0.2315665021       -0.5119589207
 C         -0.8464734612       -2.6614278979       -0.1009988592
 C          0.5433268019       -2.3323356333        0.3802695182
 C          0.8385100483       -2.4355194773        1.7355605308
 C          2.0877581853       -2.0857328451        2.2142650253
 C          3.0613967152       -1.6106213441        1.3535753985
 C          2.7689147709       -1.4878752479        0.0016677696
 C          1.5231979743       -1.8650372949       -0.4803932578
 H          1.3029692287       -1.7528425438       -1.5303545263
 N          3.7401195176       -0.9829927752       -0.8828515083
 S          4.5380160699        0.4303997247       -0.4759571280
 O          5.1152897288        0.9001640990       -1.7158772846
 O          5.4714249621        0.1563273336        0.5892237202
 C          3.2928848447        1.5739401790        0.0895045774
 C          3.0932313057        1.7550496495        1.4424647380
 C          2.1120438199        2.6390100543        1.8606213208
 C          1.3550194633        3.3245872679        0.9240934890
 C          1.5670955579        3.1297874882       -0.4319103438
 C          2.5412390624        2.2422354298       -0.8554154104
 H          2.7389316693        2.0705174989       -1.9011934128
 H          0.9731847945        3.6608810924       -1.1587417923
 H          0.5950860860        4.0162695848        1.2537674188
 H          1.9405823984        2.7897850774        2.9145689324
 H          3.7113280845        1.2147785079        2.1404468509
 H          3.4127331311       -0.9261462135       -1.8366683803
 H          4.0388056268       -1.3273116468        1.7089204777
 H          2.3051568193       -2.1784052225        3.2676824795
 H          0.0713548738       -2.7866924378        2.4123464816
 H         -1.2160279255       -3.5203283062        0.4813688827
 C         -0.8827921226       -3.0797528777       -1.5640958575
 C         -2.1869398602       -3.1449652611       -2.2999740520
 C         -1.1628655414       -2.1201356920       -2.6797450824
 H         -0.6309879314       -2.2510015519       -3.6112447481
 H         -1.3482046370       -1.0886358502       -2.4249898226
 H         -2.3618857459       -3.9746816390       -2.9681575785
 H         -3.0705682929       -2.8164820751       -1.7720293544
 H         -0.1716222473       -3.8737210011       -1.7724480089
