  62
        -98.93594110
 C         -2.5218254098       -0.3164951450        0.5829343082
 C         -2.2374741593        0.3293140109       -0.6449602675
 C         -2.0984385797        1.7975495278       -0.5985954569
 C         -2.1684984539        2.4328632111        0.5824959908
 C         -2.1010519261        3.9114311100        0.8793944433
 C         -1.1079899244        4.7634675583        0.0821024853
 C          0.2256410744        4.0742339945       -0.2411076939
 H          1.0462560762        4.7224833216        0.0727851820
 H          0.3182467764        3.1395209383        0.3167947154
 C          0.3967776467        3.7780083139       -1.7321793990
 H          0.0497044093        4.6384327785       -2.3095165473
 H          1.4606074821        3.6451907733       -1.9413368495
 C         -0.3182243340        2.5185341246       -2.2163369519
 H          0.1471761306        1.6414198578       -1.7587459084
 H         -0.1733420284        2.4382196563       -3.2967412853
 C         -1.8257248199        2.4645444984       -1.9166236424
 H         -2.2735215491        3.4548465289       -1.9647951399
 H         -2.2966950981        1.8325594457       -2.6746791680
 H         -1.5731314238        5.0928200473       -0.8459484373
 H         -0.9202807998        5.6601493281        0.6756824469
 H         -3.1069043763        4.3246692852        0.7539733494
 H         -1.8609225608        3.9730096110        1.9440934614
 O         -2.3719806588        1.7611689502        1.7540703825
 C         -2.5401114821        0.3891510786        1.7856932826
 O         -2.6988413151       -0.0790862463        2.9331739668
 H         -0.1018773554       -1.3652557289        1.1062192528
 C         -0.2310711254       -2.0744614346        0.2993415655
 C         -1.5133606522       -2.4641664097       -0.0677846454
 C         -1.6602192414       -3.3818369722       -1.0983805695
 C         -0.5457465765       -3.8694083233       -1.7597305577
 C          0.7252302937       -3.4433071012       -1.4225001417
 C          0.8819455624       -2.5332018272       -0.3822266661
 N          2.1570485719       -2.0815395327        0.0033676846
 S          2.2838335665       -0.4980987588        0.5800479302
 O          1.9909488199       -0.4991797965        1.9934783551
 O          1.5086750485        0.4057608931       -0.2361528924
 C          4.0274078867       -0.2126902080        0.3375948745
 C          4.4509643144        0.5578514031       -0.7281439146
 C          5.8110401322        0.7447053704       -0.9213719129
 C          6.7185869991        0.1574929465       -0.0528338383
 C          6.2780534959       -0.6134265302        1.0130782226
 C          4.9199564920       -0.8022406151        1.2132411685
 H          4.5291962808       -1.3838866892        2.0318434361
 H          6.9864309172       -1.0665672425        1.6875928096
 H          7.7761088736        0.3034639923       -0.2061112414
 H          6.1558387508        1.3462146998       -1.7468769197
 H          3.7069166854        0.9968994421       -1.3735447834
 H          2.8689377053       -2.2838770970       -0.6856039885
 H          1.5892837785       -3.8042365660       -1.9594705046
 H         -0.6717524519       -4.5760205146       -2.5661364870
 H         -2.6458905515       -3.6907169324       -1.4054459042
 C         -2.6587900705       -1.8279115149        0.6803993823
 H         -2.5213771544       -2.0515878592        1.7523379598
 C         -4.0251683839       -2.3734592067        0.2964297333
 C         -5.2553023105       -1.5268813162        0.4283677910
 C         -4.7595910451       -1.9220799129       -0.9285794175
 H         -5.3251626298       -2.6564781313       -1.4834248348
 H         -4.2870165668       -1.1745072878       -1.5448105859
 H         -6.1566443674       -1.9868368832        0.8049409885
 H         -5.1219884208       -0.5020082211        0.7444294983
 H         -4.1322943412       -3.4184493932        0.5715724398
 O         -2.1299932638       -0.2735080422       -1.7435492376
