  62
        -98.93939236
 C          1.4920053105        1.3683908593        0.5070996005
 C          1.5318663905        0.2892092795       -0.4072363297
 C          2.3267565499       -0.8820822709        0.0059376303
 C          2.8909611396       -0.9012525813        1.2253939405
 C          3.6892105990       -2.0043376917        1.8754120805
 C          4.7278308590       -2.7318654319        1.0114203407
 C          5.4213827896       -1.8554703619       -0.0415659889
 H          5.1966371999       -0.8030779118        0.1407409012
 H          6.5021925496       -1.9777239823        0.0512071814
 C          5.0281149100       -2.2209080815       -1.4747925691
 H          5.0187699596       -3.3090323815       -1.5686089693
 H          5.7938634103       -1.8414310216       -2.1556794788
 C          3.6855391603       -1.6649864510       -1.9477322894
 H          3.4796974604       -2.0828761507       -2.9359252896
 H          3.7565154807       -0.5805068710       -2.0670454792
 C          2.4856354199       -1.9560755607       -1.0309455198
 H          1.5798415001       -1.9117307603       -1.6402688401
 H          2.5641052594       -2.9441398708       -0.5844723000
 H          5.4744162287       -3.1404598022        1.6947008109
 H          4.2604037289       -3.5810472016        0.5151503204
 H          4.1881670089       -1.5310105220        2.7246883708
 H          2.9875914086       -2.7375264315        2.2843604602
 O          2.7647245596        0.1365694886        2.1029311406
 C          2.0897086501        1.2964982989        1.7628977207
 O          2.0802945301        2.1689746787        2.6564907808
 O          0.9326267708        0.2963299699       -1.5117073599
 C          0.7505025611        2.6409358496        0.1399034805
 C         -0.6993908190        2.3304120101       -0.1424966600
 C         -1.3843389285        2.8050451806       -1.2527583501
 C         -2.7137621485        2.4726249310       -1.4516081306
 C         -3.3880992791        1.6688544811       -0.5515910809
 C         -2.7130248295        1.1936946007        0.5658758392
 C         -1.3829955195        1.5282337402        0.7633561596
 H         -0.8588750999        1.1567200699        1.6360394997
 N         -3.3872665901        0.3734783707        1.4923403588
 S         -4.1529551904       -0.9911846589        0.8934302183
 O         -5.3611041400       -0.5962886484        0.2143761480
 O         -4.3214444610       -1.8610763191        2.0358800281
 C         -3.0028311202       -1.7044845091       -0.2657378415
 C         -3.1604734198       -1.4828680588       -1.6183078715
 C         -2.2273379497       -2.0118756889       -2.4951697313
 C         -1.1605951101       -2.7490430694       -2.0073156711
 C         -1.0152426805       -2.9612924097       -0.6451011511
 C         -1.9405970206       -2.4292694995        0.2365658687
 H         -1.8646281210       -2.5785918598        1.3022445187
 H         -0.1823731408       -3.5325003600       -0.2675353709
 H         -0.4373791500       -3.1619918395       -2.6929505209
 H         -2.3324077593       -1.8442222387       -3.5548249413
 H         -4.0085861795       -0.9124606184       -1.9590221316
 H         -2.8198877604        0.1258038404        2.2902344789
 H         -4.4223028991        1.3997542215       -0.6925437813
 H         -3.2324804181        2.8457856314       -2.3214367507
 H         -0.8767038580        3.4308964305       -1.9678166898
 H          0.7925618910        3.2861592394        1.0299523906
 C          1.4547349216        3.3406487496       -1.0040110292
 C          1.3819096722        4.8311081896       -1.1382634189
 C          2.6597780618        4.1790488091       -0.7052711986
 H          3.4893538920        4.1564701890       -1.3960329784
 H          2.9574751115        4.2684985189        0.3297663915
 H          1.3375986126        5.2593954198       -2.1282389488
 H          0.8145459421        5.3734467797       -0.3970127290
 H          1.4730946917        2.7434715898       -1.9083019493
