  62
        -98.93815551
 C          1.6438850645        1.4650469778        0.3088107991
 C          1.7901304341        0.2171210738        0.9662739607
 C          3.0603118925       -0.5047193008        0.7750953398
 C          4.0238587722        0.0550941305        0.0202221452
 C          5.4369965781       -0.3892615396       -0.2967251799
 C          5.9100128586       -1.7955689842        0.0594752386
 C          5.2767604728       -2.9074456443       -0.7774723198
 H          5.5714934151       -3.8693896450       -0.3528146397
 H          5.6855458319       -2.8518833542       -1.7895657858
 C          3.7557685806       -2.8570384501       -0.8945822485
 H          3.4443342929       -3.6695324493       -1.5564917452
 H          3.4555001459       -1.9216437735       -1.3709839693
 C          2.9915430353       -3.0118129237        0.4180597666
 H          3.2877219142       -3.9409859345        0.9091662983
 H          1.9303936228       -3.0860717574        0.1669221975
 C          3.1546668728       -1.8577080773        1.4207548962
 H          4.0798727862       -1.9543773231        1.9838432328
 H          2.3308523559       -1.9100029375        2.1391325219
 H          5.7673045291       -1.9810224847        1.1200858897
 H          6.9879909804       -1.8185584924       -0.1219815450
 H          5.5710272620       -0.2261769856       -1.3709252464
 H          6.0889484230        0.3338011740        0.2058959362
 O          3.8402511014        1.2603916174       -0.5904753202
 C          2.6570676145        1.9770116407       -0.4998055713
 O          2.6629866607        3.0220178358       -1.1795447374
 H         -2.1815133681        1.2312918979        0.8212275765
 C         -1.9208587425        1.3578696965       -0.2177179443
 C         -0.6706609117        1.8469569619       -0.5654247986
 C         -0.3695908945        2.0248689469       -1.9115333515
 C         -1.3024472839        1.7078753068       -2.8817307706
 C         -2.5428625756        1.2028932287       -2.5323234613
 C         -2.8571427156        1.0295350797       -1.1891553623
 N         -4.1194000273        0.5534851497       -0.8110530527
 S         -4.3460222196       -0.4465192479        0.5082211932
 O         -5.7055637532       -0.9167403636        0.3585853075
 O         -4.0513448868        0.2661240394        1.7250718952
 C         -3.2176626188       -1.8072025586        0.2780205212
 C         -1.9953824801       -1.8184893051        0.9165493066
 C         -1.1321770564       -2.8787736404        0.6902179452
 C         -1.4983961724       -3.9024593918       -0.1681619201
 C         -2.7330502754       -3.8785923908       -0.8008008218
 C         -3.6005071078       -2.8225124968       -0.5786886568
 H         -4.5748939031       -2.7754630767       -1.0374819731
 H         -3.0193356124       -4.6788998756       -1.4641230549
 H         -0.8208147443       -4.7240465736       -0.3409707110
 H         -0.1758311973       -2.8778371088        1.1886221439
 H         -1.7138229483       -1.0159926998        1.5780198254
 H         -4.7214595528        0.2937230084       -1.5781684813
 H         -3.2669324691        0.9531512287       -3.2927315685
 H         -1.0591784932        1.8505889492       -3.9238682458
 H          0.5984538022        2.4151704554       -2.1869574352
 C          0.3255787941        2.1883755137        0.5175122081
 H         -0.0737160939        1.7978944979        1.4641546560
 C          0.4571751874        3.6934706521        0.6456774715
 C         -0.6351727661        4.4585250144        1.3282674568
 C          0.6983146835        4.2992237894        1.9940131607
 H          1.3489787448        5.1579670073        2.0631138714
 H          0.7687417902        3.6297451421        2.8391939591
 H         -1.4702255911        3.8979210784        1.7220253168
 H         -0.9034734716        5.4290435521        0.9400512482
 H          0.9435694836        4.1572614494       -0.2022863927
 O          0.8928207115       -0.2730524257        1.7027342826
