  62
        -98.93605687
 C          2.4869728771        0.1550980453       -0.5860561798
 C          2.1628717763        0.6644519552        0.6951989334
 C          1.7361716064        2.0715837505        0.7331001710
 C          1.6698843221        2.7742262856       -0.4114174746
 C          1.2526589474        4.2128307607       -0.5181964812
 C         -0.2503422297        4.3548491952       -0.7886800890
 C         -1.1318486507        3.5432914811        0.1605408330
 H         -0.9903142646        2.4776001409       -0.0351727116
 H         -2.1710688650        3.7748607989       -0.0860634360
 C         -0.8863591914        3.8152528131        1.6513318561
 H         -1.8531571569        3.9005020005        2.1516660207
 H         -0.3696750949        4.7680300497        1.7771908190
 C         -0.1084686276        2.7100368752        2.3693368144
 H         -0.5396560866        1.7400487946        2.1102279583
 H         -0.2257929941        2.8526140590        3.4472093808
 C          1.3963728651        2.6548280117        2.0755066062
 H          1.8566589165        1.9907038973        2.8129174289
 H          1.8334901409        3.6500105656        2.1872346820
 H         -0.4526975408        4.0208982351       -1.8093592304
 H         -0.5124887292        5.4126603252       -0.7173396727
 H          1.8041497033        4.6650697978       -1.3448967127
 H          1.5155377360        4.7266420705        0.4046809793
 O          1.9717187900        2.2436320750       -1.6263650111
 C          2.3692770685        0.9227977667       -1.7423879440
 O          2.6017121771        0.5561462393       -2.9151158200
 O          2.2435557836       -0.0087028842        1.7540328703
 C          2.9373401059       -1.2933223393       -0.7536127752
 C          1.9418878797       -2.1737297014       -0.0344583794
 C          2.1810160150       -3.1286286600        0.9447001321
 C          1.1312402031       -3.8249002974        1.5231477703
 C         -0.1791252687       -3.5769210950        1.1659203035
 C         -0.4341507689       -2.6301185241        0.1805430281
 C          0.6191880248       -1.9699845433       -0.4241402461
 H          0.4007834737       -1.2398569279       -1.1921747011
 N         -1.7485473636       -2.3244550167       -0.2233892609
 S         -2.0617253759       -0.6819871593       -0.4947382551
 O         -1.7502989570       -0.3722513443       -1.8693742058
 O         -1.4091144788        0.1182055790        0.5131201608
 C         -3.8300393601       -0.6375954049       -0.2665869549
 C         -4.6367924019       -1.1672699687       -1.2563079106
 C         -6.0103824566       -1.1632426460       -1.0736915071
 C         -6.5514240141       -0.6320444354        0.0881030756
 C         -5.7293261952       -0.1015029443        1.0705831225
 C         -4.3540751989       -0.1044415930        0.8953173150
 H         -3.6746872575        0.3009840687        1.6279777462
 H         -6.1520840933        0.3139769172        1.9710150104
 H         -7.6209157018       -0.6292510066        0.2271093258
 H         -6.6527721234       -1.5721226627       -1.8367302661
 H         -4.1706830535       -1.5586946541       -2.1455260861
 H         -2.4429965493       -2.7282864760        0.3917060577
 H         -0.9938360155       -4.0999514592        1.6432719974
 H          1.3436400280       -4.5583506576        2.2864841827
 H          3.1759971919       -3.3307313190        1.2960943522
 H          2.8184713432       -1.5069104911       -1.8303485096
 C          4.4328981865       -1.3597230122       -0.4823672795
 C          5.0634765719       -1.5294150729        0.8637657659
 C          5.2180589199       -2.6000623764       -0.1769455747
 H          6.1839030826       -2.7030672164       -0.6496001635
 H          4.6931198734       -3.5339814585       -0.0648230520
 H          5.9222226026       -0.9155912334        1.0949927194
 H          4.4108031632       -1.6822862062        1.7075424046
 H          4.9278210178       -0.6496996461       -1.1430037502
