  62
        -98.94609655
 C          1.8222304090        0.9797603605       -0.2800764310
 C          3.1791221289        1.2934886811       -0.0290023613
 C          4.1578683892        0.2737287012       -0.4287089909
 C          3.7248106695       -0.8649218193       -1.0008449103
 C          4.6082936198       -2.0072143892       -1.4096101698
 C          4.7638825903       -3.0271197285       -0.2727603692
 C          5.1330938602       -2.4020907877        1.0724787204
 H          4.3020835801       -1.7828593378        1.4177686302
 H          5.2460080806       -3.2175700073        1.7901145708
 C          6.4161055900       -1.5597041073        1.0505309998
 H          7.0173975702       -1.8135870967        1.9260768198
 H          7.0079235999       -1.8078513376        0.1687248898
 C          6.1824761695       -0.0485264774        1.0940901690
 H          7.1409387094        0.4384495930        1.2927065986
 H          5.5143555195        0.1955278529        1.9239254989
 C          5.6100479891        0.5750207718       -0.1850969213
 H          5.6765062588        1.6622230718       -0.0825711819
 H          6.2148417291        0.2744087815       -1.0431582312
 H          3.8179800004       -3.5603830388       -0.1540689188
 H          5.5282937004       -3.7508088185       -0.5614142790
 H          4.1541724598       -2.5017621798       -2.2699071994
 H          5.5829866496       -1.6193196790       -1.6993650901
 O          2.4132441495       -1.1266297298       -1.2335767099
 C          1.4287917993       -0.2149992199       -0.8813034703
 O          0.2696640594       -0.5807872504       -1.1503896599
 H         -2.0068434713        1.9766360194       -0.1402609710
 C         -1.6426111110        1.4526434100        0.7267632292
 C         -0.2840954409        1.3626593606        0.9838627191
 C          0.1339977994        0.6783509913        2.1233578794
 C         -0.7823525003        0.0856315615        2.9692146198
 C         -2.1376290803        0.1566792809        2.6948302100
 C         -2.5668786007        0.8448044602        1.5675232297
 N         -3.9388071708        0.9641205596        1.2797578398
 S         -4.5426991708        0.5257600586       -0.2182059099
 O         -3.9087523412        1.3003287182       -1.2525448304
 O         -5.9753217509        0.6825350982       -0.0903679198
 C         -4.1535238803       -1.2073601314       -0.3854555990
 C         -2.8611700002       -1.5915575011       -0.6821011890
 C         -2.5712713298       -2.9458789811       -0.7530571383
 C         -3.5656876295       -3.8852011013       -0.5302027977
 C         -4.8588712596       -3.4810109215       -0.2330873077
 C         -5.1559893900       -2.1306113116       -0.1547449984
 H         -6.1467239601       -1.7697550418        0.0701376515
 H         -5.6324447093       -4.2122002517       -0.0615809072
 H         -3.3308543792       -4.9364100612       -0.5896409971
 H         -1.5608487498       -3.2449654609       -0.9830373383
 H         -2.0911921305       -0.8564663310       -0.8559399395
 H         -4.5400127006        0.5928765798        2.0022349001
 H         -2.8557514601       -0.3117804390        3.3507015703
 H         -0.4408980800       -0.4424828980        3.8467460001
 H          1.1932469095        0.6164029217        2.3337624493
 C          0.7532987287        1.9919269904        0.0884619686
 H          1.2743776286        2.7742356609        0.6607162781
 C          0.1745879084        2.6161858895       -1.1641976916
 C         -0.3710871121        4.0113115594       -1.1303969423
 C          0.9215117979        3.7287564894       -1.8338674023
 H          0.9415323078        3.7604900189       -2.9129773324
 H          1.8401014279        4.0572458700       -1.3697622426
 H         -1.2445388722        4.2345695888       -1.7248138323
 H         -0.3313037821        4.5407647999       -0.1903690326
 H         -0.3206726915        1.8936920491       -1.8046820812
 O          3.5523090887        2.3722594515        0.5057441580
