  62
        -98.94275992
 C         -1.1908456460       -1.6379340520       -0.3158738421
 C         -0.0311866029       -1.7033628938       -1.1183445277
 C          1.1635831250       -2.3149265430       -0.5108827611
 C          1.1176687320       -2.7069806589        0.7759896462
 C          2.1556738278       -3.3642428113        1.6625420182
 C          3.5932922579       -3.5370858625        1.1827587168
 C          4.3939455922       -2.2368666200        1.1057616019
 H          5.3503582589       -2.4491729730        0.6227687913
 H          4.6023589468       -1.9011023203        2.1250187556
 C          3.7159744642       -1.0790618312        0.3763504436
 H          4.3835605817       -0.2147268897        0.4451867314
 H          2.7884974926       -0.8054892607        0.8866228751
 C          3.4222483275       -1.3206113428       -1.1023085355
 H          4.3464267132       -1.5825704242       -1.6218285250
 H          3.0507241043       -0.3819351696       -1.5217750836
 C          2.3734764065       -2.4029773732       -1.3977292042
 H          2.8105350967       -3.3976585727       -1.3528679898
 H          2.0117692473       -2.2478885581       -2.4186621337
 H          3.6098223077       -4.0599286015        0.2310183690
 H          4.0902711548       -4.1858913357        1.9091423155
 H          1.7480214385       -4.3511215105        1.9085199152
 H          2.1546494803       -2.7907251651        2.5956893833
 O         -0.0164390352       -2.5839700280        1.5266610713
 C         -1.1822986174       -2.0423943494        1.0174229427
 O         -2.1237419541       -1.9893029750        1.8329051080
 O          0.0063028666       -1.2743909207       -2.3044033763
 C         -2.4506251099       -1.0040691304       -0.8794432383
 C         -2.7774010243        0.2224207430       -0.0644807972
 C         -4.0349981393        0.5036241739        0.4509965562
 C         -4.2268736293        1.6188338541        1.2493758297
 C         -3.1760770027        2.4625299691        1.5576057928
 C         -1.9171195751        2.1995044577        1.0272709711
 C         -1.7370962169        1.1051433438        0.1996812628
 H         -0.7570126043        0.8977495659       -0.2049464069
 N         -0.8301970871        3.0445862856        1.2918952548
 S          0.7450772888        2.4945773965        1.2495466739
 O          0.8658672046        1.1132963992        1.6578972117
 O          1.4819297657        3.4483333747        2.0541505462
 C          1.2600634583        2.6861698335       -0.4463378174
 C          2.5527863959        2.3024826315       -0.7441333716
 C          3.0220355462        2.4523460725       -2.0390425308
 C          2.1915129694        2.9831046817       -3.0137369037
 C          0.8985620098        3.3688060683       -2.6986503870
 C          0.4246335988        3.2245834593       -1.4033826105
 H         -0.5784423035        3.5142895036       -1.1377107528
 H          0.2533313548        3.7807163285       -3.4579422266
 H          2.5542430101        3.0950913328       -4.0232341984
 H          4.0291144567        2.1527868577       -2.2821607638
 H          3.1615150572        1.8909879012        0.0451656982
 H         -0.9772448810        3.7443999738        2.0030681616
 H         -3.3216123167        3.3133525154        2.2053673734
 H         -5.2066010238        1.8228484935        1.6541171628
 H         -4.8602058268       -0.1580774738        0.2454522054
 H         -2.1895491037       -0.6870245758       -1.8999816086
 C         -3.5788241041       -2.0101966309       -0.9495040135
 C         -4.6618703880       -1.8591825522       -1.9747055345
 C         -3.6423559864       -2.9478973079       -2.1165490924
 H         -3.9462831886       -3.9688295122       -1.9407598028
 H         -2.8822837003       -2.8439217947       -2.8769668255
 H         -5.6698388258       -2.1353545893       -1.7043423078
 H         -4.5991190728       -1.0170013591       -2.6468155450
 H         -3.8432071755       -2.4052425918        0.0250314459
