  62
        -98.94070163
 C         -2.6392787006       -0.0566019785       -0.1711075085
 C         -2.5843950111       -1.2587355884       -0.9203017786
 C         -2.0368233416       -2.4304425088       -0.2309836588
 C         -1.6201254915       -2.3176243491        1.0429922212
 C         -0.9975410419       -3.4086097694        1.8702663311
 C          0.5117214380       -3.5551796900        1.6283017510
 C          0.8923321277       -4.2297466201        0.3090663609
 H          1.9490183575       -4.4956505805        0.3794963808
 H          0.3286702373       -5.1570701598        0.1975087908
 C          0.6884090880       -3.3446658599       -0.9287077590
 H          0.6142369184       -2.3007492299       -0.6121026189
 H          1.5637619979       -3.4226202702       -1.5790542191
 C         -0.5308816422       -3.7075137392       -1.7776757890
 H         -0.6037006419       -2.9882511591       -2.5977328589
 H         -0.3902767627       -4.7001269993       -2.2121479691
 C         -1.8647404922       -3.6939793387       -1.0199253489
 H         -1.9344538425       -4.5616227888       -0.3644417890
 H         -2.6741310522       -3.7413138983       -1.7529821789
 H          0.9646618084       -2.5607150102        1.6709188711
 H          0.9204979778       -4.1478384903        2.4502637409
 H         -1.4983897023       -4.3576273992        1.6757521710
 H         -1.1553923417       -3.1364756195        2.9160697511
 O         -1.7251477909       -1.1599247991        1.7436273413
 C         -2.1655541205        0.0098391612        1.1425770115
 O         -2.1059438200        1.0079008611        1.8855426616
 O         -2.9531202612       -1.3403620582       -2.1240582786
 C         -3.0117935001        1.2170119017       -0.9168786284
 C         -1.8724906796        2.1865945212       -0.7258709283
 C         -1.9901342991        3.4547545312       -0.1757789382
 C         -0.8601370987        4.2129217207        0.0857196818
 C          0.4054629211        3.7196816902       -0.1764226683
 C          0.5276813205        2.4640401302       -0.7523134284
 C         -0.6015800698        1.7234898007       -1.0456555684
 H         -0.4928736603        0.7325942307       -1.4723541985
 N          1.8248825002        1.9000039697       -0.9491439885
 S          2.2198763299        0.9814119793        0.4255092814
 O          1.3852132594       -0.1986036203        0.4992998613
 O          2.2033942203        1.8639884192        1.5635125414
 C          3.8989468397        0.5097961887        0.0514330812
 C          4.1820199791       -0.7893179814       -0.3220039489
 C          5.4891601890       -1.1251122620       -0.6397550690
 C          6.4827321094       -0.1598672724       -0.5831483290
 C          6.1818983100        1.1412722277       -0.2075460188
 C          4.8780451201        1.4826400182        0.1132349913
 H          4.5960969906        2.4767137883        0.4175388014
 H          6.9575935603        1.8886170274       -0.1638595488
 H          7.4984539792       -0.4239115128       -0.8319333190
 H          5.7253452785       -2.1362686520       -0.9297375091
 H          3.3773631088       -1.5073173811       -0.3472713290
 H          1.8132441599        1.2526868597       -1.7294643586
 H          1.2926567913        4.2761813398        0.0771338217
 H         -0.9678334883        5.1905223007        0.5307252319
 H         -2.9639337689        3.8338652316        0.0889457119
 H         -3.0285666402        0.9100239919       -1.9768110184
 C         -4.3844267298        1.7934216023       -0.6180898982
 C         -5.4959928001        0.9122036227       -0.1336899283
 C         -4.9172011197        1.9546973224        0.7727721718
 H         -5.5138590393        2.8288453326        0.9899505719
 H         -4.2872179497        1.6402789520        1.5891547817
 H         -6.4870383801        1.0659096832       -0.5333983782
 H         -5.2577421706       -0.1229148774        0.0650037016
 H         -4.6601534595        2.5628411825       -1.3331799682
