  62
        -98.94664442
 C         -2.4653329382       -0.4210954875       -0.0557514263
 C         -2.1850312245       -1.5413698751       -0.8712193292
 C         -1.4876565159       -2.6513234725       -0.2153606806
 C         -1.1625218345       -2.5565116605        1.0869208953
 C         -0.4223274018       -3.5920570032        1.8891749543
 C          1.1020186739       -3.5072479835        1.7259907940
 C          1.6429574570       -4.0413529471        0.3986000389
 H          2.7224879904       -4.1543708785        0.5167857560
 H          1.2281588076       -5.0323446779        0.2087110566
 C          1.3749586353       -3.1244151715       -0.8027000666
 H          1.1313734651       -2.1233302917       -0.4394540569
 H          2.2861109392       -3.0379459016       -1.3999118325
 C          0.2658949108       -3.6065494140       -1.7383862762
 H          0.1283865018       -2.8568280520       -2.5218176286
 H          0.5693462353       -4.5416328928       -2.2154121616
 C         -1.0899162731       -3.8277525134       -1.0562838998
 H         -1.8480851487       -3.9482486331       -1.8345072428
 H         -1.0631396196       -4.7333808303       -0.4506970109
 H          1.4036354334       -2.4629017724        1.8451456498
 H          1.5515936015       -4.0828162873        2.5389674150
 H         -0.6688847220       -3.4087171067        2.9372715781
 H         -0.7679541006       -4.5905374247        1.6186830006
 O         -1.4935259123       -1.4820794612        1.8505068879
 C         -2.1079806511       -0.3743178265        1.2923518051
 O         -2.3045357159        0.5638436604        2.0915695283
 O         -2.4941061770       -1.6048337589       -2.0932232629
 C         -3.0774441043        0.8172066026       -0.6853885159
 C         -2.1495520672        1.9885224053       -0.4699499675
 C         -2.5869066433        3.2639589056       -0.1387456469
 C         -1.6728969612        4.2740165426        0.1097424363
 C         -0.3136857971        4.0256602490        0.0669466338
 C          0.1339646432        2.7560638192       -0.2803598785
 C         -0.7830019448        1.7675549850       -0.5910464453
 H         -0.4273035346        0.7878887289       -0.8717964345
 N          1.5129584404        2.4498449751       -0.3290767923
 S          2.0789776296        1.2076045367        0.6736817074
 O          1.2349960410        0.0485850390        0.5701015281
 O          2.2946947830        1.7387596621        2.0056971915
 C          3.6524921454        0.8803768935       -0.0962968633
 C          3.6657103841        0.1292494155       -1.2553524309
 C          4.8769819102       -0.1141377795       -1.8825230766
 C          6.0482653178        0.3984685095       -1.3444786833
 C          6.0189753619        1.1515012194       -0.1807589596
 C          4.8101337308        1.3971991418        0.4517315590
 H          4.7399307393        1.9680743555        1.3634768112
 H          6.9311380489        1.5471504666        0.2359164531
 H          6.9895316822        0.2075406279       -1.8351894962
 H          4.9025286556       -0.7010039114       -2.7865808832
 H          2.7317305626       -0.2538863298       -1.6335574534
 H          2.0791804978        3.2674483370       -0.1355850242
 H          0.3972103156        4.8029782704        0.3056699509
 H         -2.0251486366        5.2611295991        0.3689252124
 H         -3.6429621862        3.4651153574       -0.0595335435
 H         -3.1361057843        0.6032899637       -1.7634082745
 C         -4.4767819930        1.0558521554       -0.1579861585
 C         -5.5155421060        1.7026526210       -1.0238851372
 C         -5.6061455363        0.2404421881       -0.7103018873
 H         -6.3760328501       -0.0982947072       -0.0334890503
 H         -5.3671027415       -0.4681541493       -1.4897355380
 H         -6.2291052129        2.3686151886       -0.5624422132
 H         -5.2258968887        1.9875965885       -2.0239638918
 H         -4.4855414237        1.2699123055        0.9052580122
