  62
        -98.94651249
 C          1.1886870652        1.1221505815        0.5604790764
 C          1.6927547718        0.6767486758       -0.6856974346
 C          2.4869532163       -0.5610852652       -0.6445593141
 C          2.5995094053       -1.2370756640        0.5124895601
 C          3.4313371778       -2.4706659611        0.7092917229
 C          4.8523052654       -2.1099565350        1.1656050950
 C          5.5204049602       -1.0334700949        0.3099136995
 H          4.9851775736       -0.0902021337        0.4408435480
 H          6.5291782920       -0.8864863504        0.7018362128
 C          5.5972984642       -1.3681475672       -1.1864359119
 H          5.4535852602       -2.4389209472       -1.3352121795
 H          6.5981516956       -1.1234842877       -1.5484511564
 C          4.6071858508       -0.5963390358       -2.0609404368
 H          4.6876067655        0.4725008170       -1.8473473696
 H          4.8918289479       -0.7428717895       -3.1063018903
 C          3.1350324067       -1.0062636161       -1.9253546678
 H          2.5801979283       -0.5133858380       -2.7291905313
 H          3.0425926721       -2.0863915561       -2.0544687637
 H          5.4599388685       -3.0166474506        1.1521808944
 H          4.8051844535       -1.7481304380        2.1953284103
 H          2.9598523687       -3.0871974590        1.4761594360
 H          3.4756984224       -3.0305053003       -0.2229215501
 O          1.9955516292       -0.8405144852        1.6615922529
 C          1.2956456576        0.3502890605        1.7186831609
 O          0.8107910328        0.6080460328        2.8404724586
 H         -1.5334681003        0.9610434299        1.6316805739
 C         -1.8292812486        1.4221342401        0.6974259510
 C         -0.9288438135        2.2590033193        0.0473556753
 C         -1.3092890745        2.8374755491       -1.1553262648
 C         -2.5604005148        2.5785041628       -1.6913781598
 C         -3.4554401876        1.7487735949       -1.0406999221
 C         -3.0818511818        1.1666609021        0.1643516802
 N         -3.9843927248        0.3022170464        0.8280673617
 S         -4.2554002496       -1.1649894571        0.0680340735
 O         -4.8696203576       -0.9157305321       -1.2101963523
 O         -5.0179336065       -1.9586137426        1.0038446149
 C         -2.6356708898       -1.8771237551       -0.1584694759
 C         -2.1794619640       -2.8032474012        0.7576903875
 C         -0.9056576955       -3.3259372565        0.6048844419
 C         -0.1096608540       -2.9034664221       -0.4480870546
 C         -0.5759365669       -1.9605616153       -1.3508375792
 C         -1.8522079593       -1.4413175014       -1.2087968596
 H         -2.2473341971       -0.7139582715       -1.8991709664
 H          0.0521600885       -1.6194258870       -2.1581698163
 H          0.8817117536       -3.3100746565       -0.5667292707
 H         -0.5363699621       -4.0563077613        1.3068746064
 H         -2.8329854367       -3.1059047955        1.5603316851
 H         -3.7178690939        0.1239594325        1.7870521870
 H         -4.4255645602        1.5247746664       -1.4534371716
 H         -2.8421398495        3.0307233216       -2.6301858864
 H         -0.6217410067        3.4785844404       -1.6812157806
 C          0.4306542730        2.4362833639        0.6770686097
 H          0.2780187687        2.5982872558        1.7533275959
 C          1.2248935997        3.5972653652        0.1199537027
 C          0.8499660332        4.9953278412        0.5066139416
 C          2.1097148177        4.3826457865        1.0387681140
 H          3.0566964342        4.7394380188        0.6623291093
 H          2.1368926234        4.0910918805        2.0789151583
 H          0.0201145297        5.1192530089        1.1860501613
 H          0.9318680810        5.7760334821       -0.2340326741
 H          1.5840773237        3.4264093596       -0.8868973241
 O          1.5074603197        1.2765923569       -1.7751428913
