  62
        -98.94586455
 C         -1.8041178688       -1.3765157411       -0.2596114192
 C         -3.0819326889       -1.2187818518        0.3316764008
 C         -3.8757002897       -0.0841210624       -0.1519113794
 C         -3.3659355702        0.7358128078       -1.0890656696
 C         -4.0519766010        1.9369525572       -1.6814141898
 C         -3.9324194218        3.2089780675       -0.8303226600
 C         -4.7786016217        3.2244313172        0.4434064500
 H         -4.7749544224        4.2500198272        0.8178833398
 H         -5.8106640716        2.9730095265        0.1968169201
 C         -4.2702021111        2.2932760877        1.5529624602
 H         -4.2767588514        2.8257166179        2.5066903901
 H         -3.2336849809        2.0144487983        1.3493688002
 C         -5.0963531803        1.0208431472        1.7396339204
 H         -4.6256729099        0.4169761076        2.5196110805
 H         -6.1018987805        1.2815293766        2.0775847604
 C         -5.2145393598        0.1561216169        0.4780892706
 H         -5.6250355392       -0.8149639133        0.7660509708
 H         -5.8923622601        0.6232071363       -0.2361798795
 H         -4.2430885023        4.0486274872       -1.4562802801
 H         -2.8825239018        3.3582820882       -0.5693327901
 H         -3.5765551111        2.1223389974       -2.6470345398
 H         -5.1048614108        1.7102969966       -1.8522594097
 O         -2.1367088701        0.5463398985       -1.6369452696
 C         -1.3267097194       -0.5105022210       -1.2433955594
 O         -0.2364124994       -0.5635296004       -1.8427119594
 H          1.6262460118       -2.4132418390       -0.8189444291
 C          1.5404702315       -1.9088285089        0.1300510508
 C          0.3319173515       -1.9032388395        0.8057971808
 C          0.2520874011       -1.2276955294        2.0213246007
 C          1.3537399907       -0.5765334186        2.5427672505
 C          2.5550984007       -0.5657300179        1.8539341105
 C          2.6399841511       -1.2284409181        0.6375070806
 N          3.8388525110       -1.1920642575       -0.0936690794
 S          4.6660074401        0.2570862830       -0.1771269597
 O          5.3779545101        0.2145968632       -1.4361593497
 O          5.4939060601        0.4028790638        0.9960897603
 C          3.4489145993        1.5660462522       -0.1998376699
 C          2.3210268494        1.4479024614       -0.9869793898
 C          1.4069597787        2.4896443008       -1.0054591600
 C          1.6372677080        3.6308531511       -0.2537814402
 C          2.7783563479        3.7369349020        0.5267226497
 C          3.6910702786        2.6954005325        0.5576147099
 H          4.5846188686        2.7307266932        1.1597476499
 H          2.9570972174        4.6247637122        1.1117286696
 H          0.9239350775        4.4397760006       -0.2764523504
 H          0.5159498787        2.3864405101       -1.6052480800
 H          2.1301084699        0.5561254312       -1.5623428897
 H          3.7711660913       -1.6208550777       -1.0052462393
 H          3.4220660804       -0.0527669173        2.2384401004
 H          1.2772931504       -0.0622880785        3.4886607205
 H         -0.6931930689       -1.2108582599        2.5461453907
 C         -0.9175521081       -2.5126473904        0.2227078510
 H         -1.4795149078       -3.0014119806        1.0300165211
 C         -0.6625462375       -3.5223999705       -0.8759771289
 C         -0.1322096666       -4.8795525801       -0.5246314786
 C         -1.5493532768       -4.7245552910       -0.9861250886
 H         -1.8135329966       -5.0804079514       -1.9707756986
 H         -2.3405872667       -4.8292722614       -0.2585130686
 H          0.0415977335       -5.0899174598        0.5197551314
 H          0.5772514036       -5.3467199997       -1.1907565886
 H         -0.3298148478       -3.0697121504       -1.8030104790
 O         -3.5360870684       -1.9904219619        1.2174351309
