  62
        -98.94025813
 C          2.4073422781        1.2512847759        0.0240823690
 C          3.3951714209        0.8444581932        0.9601249380
 C          4.4790753471       -0.0017667177        0.4468890237
 C          4.4893540083       -0.3322074608       -0.8569049341
 C          5.5037421376       -1.2252347947       -1.5091767205
 C          5.0531240026       -2.6925228939       -1.4826583046
 C          4.5861762545       -3.1708346921       -0.1077394015
 H          4.3222509981       -4.2263053338       -0.2033514083
 H          3.6736982312       -2.6354216900        0.1653119295
 C          5.6253876348       -3.0024568575        1.0095422137
 H          6.6166137227       -2.8656483218        0.5758684284
 H          5.6542745215       -3.9195309120        1.6015698688
 C          5.3336575929       -1.8553321694        1.9787542415
 H          5.9964335021       -1.9622561179        2.8414715175
 H          4.3064237064       -1.9354493589        2.3432099012
 C          5.5371163541       -0.4418860938        1.4190292371
 H          6.5289160600       -0.3634403702        0.9690899374
 H          5.4825444715        0.2587817407        2.2572062415
 H          5.8829043143       -3.3141167252       -1.8239269343
 H          4.2262785815       -2.8135531435       -2.1865333185
 H          6.4568197608       -1.1177155526       -0.9948891446
 H          5.6231638103       -0.9094745569       -2.5469967001
 O          3.5352706761        0.0812706128       -1.7274562300
 C          2.4679174276        0.8720909160       -1.3172422970
 O          1.6755735765        1.1475049904       -2.2390951258
 O          3.3729063666        1.1861051201        2.1723762684
 C          1.2999739748        2.1437509478        0.5570932239
 C          0.0640083771        1.3590303278        0.9126928736
 C         -0.5446353350        1.5039069304        2.1537301832
 C         -1.7018161330        0.8076667937        2.4578085710
 C         -2.2784320168       -0.0400021340        1.5287369737
 C         -1.6757910674       -0.1934209773        0.2872671508
 C         -0.5117456075        0.4970735847       -0.0109284716
 H         -0.0563165307        0.3824261310       -0.9841782982
 N         -2.2811061456       -1.0364347266       -0.6758309007
 S         -3.6889577168       -0.3822887980       -1.3399699849
 O         -3.8816405788       -1.0650551835       -2.6003358084
 O         -3.6170688349        1.0606040429       -1.3932724838
 C         -4.9587997446       -0.8840131320       -0.1982099339
 C         -5.6355027599        0.0681187503        0.5385255034
 C         -6.6163600350       -0.3456726068        1.4265224073
 C         -6.9006849550       -1.6961279300        1.5610415783
 C         -6.2132619283       -2.6395396939        0.8115472257
 C         -5.2324044419       -2.2327392033       -0.0787514026
 H         -4.6782705848       -2.9296671269       -0.6851377251
 H         -6.4379742131       -3.6885198136        0.9183922812
 H         -7.6633293980       -2.0154869322        2.2536655280
 H         -7.1523426207        0.3859264578        2.0094532376
 H         -5.3760588392        1.1056919078        0.4026885718
 H         -1.6510189067       -1.2610436426       -1.4348047577
 H         -3.1801639724       -0.5844714869        1.7568816351
 H         -2.1612188739        0.9284118688        3.4267104295
 H         -0.0991573593        2.1634010071        2.8841715354
 H          1.7086026918        2.5573203775        1.4927618384
 C          0.9955103625        3.3218038643       -0.3606712257
 C         -0.2799896226        3.4848738139       -1.1273394529
 C         -0.0028277460        4.3616015520        0.0549890725
 H          0.2307379488        5.4020792796       -0.1121208372
 H         -0.5696731794        4.1726166445        0.9541373183
 H         -0.2124210260        3.9090148250       -2.1181295512
 H         -1.0477493528        2.7306055075       -1.0409031982
 H          1.8918752430        3.6834025128       -0.8556219065
