  62
        -98.94477521
 C         -1.8521264551       -0.7024677561        0.4179826829
 C         -2.4760444194       -0.1522795508       -0.7280024028
 C         -3.5515848448        0.8125012195       -0.4630882071
 C         -3.8459877888        1.1584687718        0.8031317178
 C         -4.8995215120        2.1440077243        1.2306832664
 C         -6.3106013372        1.5473157734        1.3241890047
 C         -6.9792186239        1.2439571068       -0.0172329006
 H         -8.0319066688        1.0405026151        0.1889847349
 H         -6.9374742984        2.1302785384       -0.6511438178
 C         -6.3821156149        0.0442447865       -0.7660260643
 H         -5.7888466793       -0.5583119845       -0.0744337386
 H         -7.1890694045       -0.5931506936       -1.1343229681
 C         -5.5138039429        0.4154665863       -1.9682524725
 H         -5.1143836582       -0.5055256220       -2.4003060840
 H         -6.1283421967        0.9044189174       -2.7273836463
 C         -4.3304122723        1.3328906405       -1.6330889083
 H         -4.6825286854        2.3456829638       -1.4376907286
 H         -3.6579984228        1.3559704768       -2.4943528280
 H         -6.2649274254        0.6349652839        1.9233487053
 H         -6.9329322663        2.2666729638        1.8615152338
 H         -4.9065429793        2.9933425377        0.5467948485
 H         -4.6095598907        2.4988324710        2.2221980187
 O         -3.1792288579        0.6512556457        1.8748975854
 C         -2.1828151026       -0.2982001294        1.7106560539
 O         -1.6636268484       -0.6880435001        2.7774060235
 O         -2.1553765640       -0.4467904675       -1.9078243154
 C         -0.7548447301       -1.7400697267        0.2599691305
 C          0.4105165355       -1.1430416711       -0.4918037666
 C          1.0231426236       -1.7562472955       -1.5759229938
 C          2.0856195244       -1.1437270267       -2.2194889759
 C          2.5670456870        0.0789188311       -1.7911243537
 C          1.9758116847        0.6897938155       -0.6915453321
 C          0.9116324086        0.0760340529       -0.0501483260
 H          0.4493462990        0.5553273364        0.8045513262
 N          2.4746925858        1.9197287564       -0.2304137817
 S          4.1354037792        2.0906613080       -0.1087391340
 O          4.3415200853        3.0511310090        0.9528503713
 O          4.6804037933        2.4505561558       -1.3941654814
 C          4.7429051376        0.4830779208        0.3726004627
 C          5.6404922654       -0.1839860956       -0.4359203473
 C          6.0770316936       -1.4433188674       -0.0567267195
 C          5.6071706024       -2.0123966697        1.1164710066
 C          4.7082259978       -1.3278151694        1.9203578768
 C          4.2705188917       -0.0675099179        1.5476014305
 H          3.5744081690        0.4901249182        2.1540714594
 H          4.3428338786       -1.7709481489        2.8329538452
 H          5.9424106710       -2.9950488549        1.4084200419
 H          6.7775787440       -1.9769078302       -0.6785420595
 H          5.9763943203        0.2941879844       -1.3415721506
 H          2.0065631888        2.2714595884        0.5913735522
 H          3.3814308307        0.5761253982       -2.2926317381
 H          2.5433111685       -1.6248991844       -3.0700798880
 H          0.6624056642       -2.7088931202       -1.9262561720
 H         -0.4132620716       -1.9764236313        1.2783742655
 C         -1.3093272473       -2.9989248319       -0.3726487376
 C         -0.6850796411       -4.3285731326       -0.0774517832
 C         -2.0268950758       -3.9869298524        0.4954765163
 H         -2.9010936791       -4.4820789475        0.0999517306
 H         -2.0934156422       -3.7637869798        1.5507655276
 H         -0.6393463890       -5.0637581151       -0.8665336044
 H          0.1609206170       -4.3458770215        0.5926466424
 H         -1.7068480093       -2.8259205628       -1.3658608343
