  62
        -98.94449704
 C         -2.6564288195       -1.2576581697        0.1209106234
 C         -2.5564982710       -0.2816260789       -0.9002529956
 C         -3.4462461765        0.8818842441       -0.7651683495
 C         -4.2926652862        0.9536661719        0.2776210667
 C         -5.2088487664        2.1067988310        0.5647269906
 C         -4.5321091381        3.1393482199        1.4771026517
 C         -3.1310895497        3.5465459718        1.0197689300
 H         -2.7666465163        4.3015525800        1.7198049284
 H         -2.4608327018        2.6871101141        1.1009888514
 C         -3.0655989442        4.1031179770       -0.4093108184
 H         -2.4348293030        4.9945499889       -0.4088420722
 H         -4.0607678385        4.4091656870       -0.7343858804
 C         -2.4706122939        3.1405861404       -1.4391285375
 H         -2.2693275978        3.7044239454       -2.3543446597
 H         -1.5112441496        2.7605663212       -1.0755826099
 C         -3.3536316256        1.9459440181       -1.8222696546
 H         -4.3478567540        2.2992446643       -2.1032775882
 H         -2.9000177082        1.4652949736       -2.6941087646
 H         -4.4533822719        2.7159683396        2.4809512893
 H         -5.1696040809        4.0236808818        1.5295869886
 H         -5.5031518410        2.5728437265       -0.3734896427
 H         -6.0990942971        1.7218422199        1.0647862699
 O         -4.3747883811       -0.0115162343        1.2278179196
 C         -3.5501523752       -1.1214730411        1.1873247611
 O         -3.7095582747       -1.9117792901        2.1384768812
 H          0.2573808228       -1.6599015495       -1.5073616443
 C          0.5344094082       -1.6137959684       -0.4660621073
 C         -0.3663742671       -2.0251252353        0.5043234048
 C          0.0008529777       -1.9178260253        1.8426719484
 C          1.2384199989       -1.4131044987        2.1963308249
 C          2.1297712535       -0.9914899601        1.2247586093
 C          1.7656074275       -1.0793931780       -0.1115872802
 N          2.6542921601       -0.6242775224       -1.1038413246
 S          3.2457189212        0.9404109523       -0.9306155522
 O          2.3407536650        1.7742921364       -0.1731729064
 O          3.5624264536        1.3812964072       -2.2718068771
 C          4.7654543693        0.7120551103       -0.0291692532
 C          5.7070278339       -0.1536235252       -0.5506614305
 C          6.8972279873       -0.3395745929        0.1340496831
 C          7.1264451016        0.3420548235        1.3201242424
 C          6.1732076663        1.2110321269        1.8283750714
 C          4.9796911851        1.4002800740        1.1488425226
 H          4.2068729346        2.0608612537        1.5089169230
 H          6.3529039229        1.7407413839        2.7501529026
 H          8.0534299699        0.1954213075        1.8516082706
 H          7.6410538254       -1.0142967242       -0.2580736437
 H          5.4909095772       -0.6599705479       -1.4764533551
 H          2.2962984722       -0.7543659833       -2.0400700867
 H          3.0901008933       -0.5820525429        1.4929859772
 H          1.5103394878       -1.3399741929        3.2384437391
 H         -0.7071222014       -2.2172219990        2.6030453147
 C         -1.7590144701       -2.4870474703        0.1499583912
 H         -2.1307055010       -3.1089345515        0.9747210083
 C         -1.8318444846       -3.2898963972       -1.1318826971
 C         -1.2993609748       -4.6903504807       -1.1449049831
 C         -2.7767326242       -4.4493832137       -1.2134547866
 H         -3.2877588468       -4.6312272625       -2.1470499493
 H         -3.3728138657       -4.6709448401       -0.3401487805
 H         -0.7940068968       -5.0421641894       -2.0312189169
 H         -0.8915072078       -5.0755592955       -0.2226767641
 H         -1.7102645372       -2.6925138035       -2.0261063785
 O         -1.7763642516       -0.3633792884       -1.8864642303
