  62
        -98.94518664
 C          1.8041934216        1.4688661045        0.0904396708
 C          1.5782558057        0.0734228139        0.0006579756
 C          2.6754290783       -0.7757921400        0.4821586275
 C          3.8018282238       -0.2130631230        0.9556643829
 C          5.0017789913       -0.9488350478        1.4880538439
 C          5.9709820244       -1.4330076422        0.4005770516
 C          5.4801997332       -2.6194901804       -0.4304268381
 H          6.3388717385       -2.9922942507       -0.9925261377
 H          5.1569510363       -3.4191657652        0.2366951517
 C          4.3540323838       -2.2809582805       -1.4173783922
 H          4.5773412991       -2.7258974132       -2.3897534239
 H          4.3113000736       -1.1991318565       -1.5630656457
 C          2.9712706173       -2.7782348298       -0.9959133881
 H          2.9669317188       -3.8703108732       -0.9763778065
 H          2.2458905131       -2.4489116772       -1.7437597680
 C          2.5078179115       -2.2609861196        0.3716685270
 H          1.4421833275       -2.4752641046        0.4777394656
 H          3.0521322275       -2.7657074376        1.1695149040
 H          6.8983134411       -1.7254377334        0.8987977549
 H          6.2008295056       -0.5945947290       -0.2611108507
 H          4.6749838596       -1.7975689097        2.0896151615
 H          5.5337684522       -0.2486422867        2.1358065887
 O          3.9771924157        1.1344077435        1.0238508654
 C          2.9873318691        2.0052365062        0.5962444680
 O          3.2735465782        3.2136006598        0.7223705029
 O          0.5219991529       -0.4362498423       -0.4517842974
 C          0.7216755706        2.4326572143       -0.3631517674
 C         -0.5598864297        2.0963720262        0.3584011743
 C         -0.5545449930        2.0777700408        1.7508952629
 C         -1.6857875495        1.7215967474        2.4591175355
 C         -2.8489837324        1.3717915039        1.7948849055
 C         -2.8656483998        1.3918427931        0.4076720836
 C         -1.7310400687        1.7645432999       -0.3020866705
 H         -1.7643241505        1.7718865928       -1.3801582420
 N         -4.0424502534        1.0315425706       -0.2791538014
 S         -4.6894980596       -0.4826633248        0.0296140050
 O         -5.6444437654       -0.7041707504       -1.0332758407
 O         -5.2163954622       -0.5067331774        1.3708992827
 C         -3.3314354801       -1.6273547358       -0.1193774260
 C         -2.6126434277       -1.9832140069        1.0029225684
 C         -1.5380246337       -2.8455188130        0.8616531764
 C         -1.1997211505       -3.3296858804       -0.3915306653
 C         -1.9281287744       -2.9573385096       -1.5098306092
 C         -3.0028829707       -2.0950712676       -1.3757756187
 H         -3.6009728058       -1.7894925399       -2.2196670690
 H         -1.6570229130       -3.3318980357       -2.4840102330
 H         -0.3611624516       -3.9999646217       -0.4998229941
 H         -0.9649955377       -3.1312386423        1.7297921898
 H         -2.9068677314       -1.5881027017        1.9616139863
 H         -3.9738530511        1.1662304878       -1.2783177227
 H         -3.7361529588        1.0729190906        2.3293834039
 H         -1.6627303908        1.7103531283        3.5386012369
 H          0.3586400842        2.3356340560        2.2708173746
 H          1.0471418080        3.4342209249       -0.0484080029
 C          0.6039245176        2.4091368424       -1.8727432300
 C          0.0520185670        3.5951316254       -2.6040513129
 C          1.5146880600        3.2784577136       -2.6841554200
 H          1.9089318612        2.8892314577       -3.6109777408
 H          2.2085142305        3.9079958943       -2.1461696006
 H         -0.5556665020        3.4270622268       -3.4806054744
 H         -0.2501636043        4.4485361975       -2.0160441242
 H          0.3862107446        1.4198674113       -2.2595280634
