  62
        -98.94455187
 C         -2.6171832712       -1.2226847057        0.1412115237
 C         -2.6347786123       -0.2790412200       -0.9142915680
 C         -3.4312959840        0.9351057674       -0.6793374397
 C         -4.0922294112        1.0846922118        0.4821133839
 C         -4.8858904674        2.2967403663        0.8724432416
 C         -4.0158088822        3.3098187526        1.6295277609
 C         -2.6873920803        3.6242411816        0.9406011384
 H         -2.1763769253        4.3761481007        1.5460890601
 H         -2.0562127610        2.7317272339        0.9465907045
 C         -2.8236861735        4.1371183827       -0.4998222337
 H         -2.1538948963        4.9895761914       -0.6314164857
 H         -3.8404000928        4.4922321082       -0.6726991081
 C         -2.4545667258        3.1137829931       -1.5755712038
 H         -1.4724907932        2.6869066670       -1.3509081012
 H         -2.3688611494        3.6404849399       -2.5301191724
 C         -3.4529707622        1.9656394787       -1.7730705780
 H         -4.4582423619        2.3715927114       -1.9016690525
 H         -3.1749631846        1.4380237281       -2.6901160940
 H         -4.5880369552        4.2308452940        1.7542017947
 H         -3.7978915583        2.9070854073        2.6212744115
 H         -5.3023179789        2.7561161163       -0.0217686448
 H         -5.7030289248        1.9776063520        1.5214597942
 O         -4.0709346368        0.1498471731        1.4648089840
 C         -3.3255205381       -1.0069996783        1.3286156505
 O         -3.3793727215       -1.7660880210        2.3164200599
 H         -0.0300684594       -1.2333462433       -1.5087274006
 C          0.4115294761       -1.5148494518       -0.5644717727
 C         -0.3569517408       -2.1916966190        0.3720987224
 C          0.2177193696       -2.5092541484        1.5976055237
 C          1.5266112112       -2.1559037426        1.8751616792
 C          2.2851345070       -1.4715302193        0.9420008235
 C          1.7159516461       -1.1410090587       -0.2804306035
 N          2.4706697888       -0.4136855158       -1.2246016607
 S          3.0113374046        1.0946513339       -0.7086470374
 O          2.1436624727        1.6491197169        0.3061390042
 O          3.1791962077        1.8794855980       -1.9124475787
 C          4.6156440973        0.7463775891       -0.0186907172
 C          5.5513383263        0.1320934175       -0.8281678692
 C          6.8060258036       -0.1444712191       -0.3092365013
 C          7.1031734806        0.1988051054        1.0014991027
 C          6.1540248960        0.8183274010        1.7999721885
 C          4.8962359265        1.0964842592        1.2873373214
 H          4.1236240237        1.5700958970        1.8719256765
 H          6.3865858949        1.0846366767        2.8185698885
 H          8.0803212216       -0.0177558931        1.4034101315
 H          7.5468597561       -0.6262007614       -0.9267448272
 H          5.2799015889       -0.1141865490       -1.8410474122
 H          1.9890886800       -0.3130089835       -2.1081242598
 H          3.3013961840       -1.1827464358        1.1560771331
 H          1.9588665151       -2.4100953465        2.8309881715
 H         -0.3794230895       -3.0167174821        2.3416464236
 C         -1.8064690543       -2.5112635472        0.0941073704
 H         -2.1798333260       -3.1251041148        0.9242615952
 C         -1.9890708599       -3.2875678187       -1.1944778162
 C         -1.6341694419       -4.7428490515       -1.2183870063
 C         -3.0707772520       -4.3203411235       -1.2770161847
 H         -3.6060412948       -4.4310093910       -2.2081081048
 H         -3.6844819794       -4.4723437811       -0.4008886315
 H         -1.2734994932       -5.1835981551       -0.3013361995
 H         -1.1804388421       -5.1474173313       -2.1099748491
 H         -1.7945865656       -2.7054043237       -2.0850893359
 O         -2.0274422260       -0.4181523254       -2.0108564474
