  62
        -98.93376436
 C         -2.4852204864       -0.0715723126       -0.6050188395
 C         -2.2664442731       -0.6363496340        0.6747072431
 C         -1.9132182424       -2.0632425644        0.6906184375
 C         -1.8220608906       -2.7364525274       -0.4698089544
 C         -1.4830023141       -4.1939493955       -0.5942168591
 C          0.0207408460       -4.4247384985       -0.7893909874
 C          0.9038456312       -3.6864059156        0.2166042656
 H          0.8447621836       -2.6123212483        0.0272540872
 H          1.9355686998       -3.9859279677        0.0163031327
 C          0.5704501128       -3.9634573889        1.6890083708
 H          1.5057569887       -4.1079392028        2.2338644689
 H         -0.0009474743       -4.8889575314        1.7741577107
 C         -0.1833667619       -2.8316565425        2.3908119356
 H          0.3072656396       -1.8794157150        2.1717787398
 H         -0.1226112831       -2.9975942967        3.4699070970
 C         -1.6684363884       -2.6961153826        2.0310130316
 H         -2.1320044677       -2.0288937215        2.7635129065
 H         -2.1561215279       -3.6713107992        2.0958699285
 H          0.2962788422       -4.0881798886       -1.7918643093
 H          0.2112263316       -5.4984586131       -0.7261459527
 H         -1.8257981703       -4.7125894046        0.2994358841
 H         -2.0154381282       -4.5925066764       -1.4602218384
 O         -2.0295991663       -2.1558244903       -1.6812898490
 C         -2.3395886351       -0.8097965238       -1.7769108796
 O         -2.4753832547       -0.3940240921       -2.9489293352
 H         -0.2876453773        1.1433291461       -0.9090184338
 C         -0.5198432591        1.8882787906       -0.1605039755
 C         -1.8565834763        2.2003397437        0.0883324576
 C         -2.1176315247        3.1878516143        1.0274181414
 C         -1.0785343085        3.8140272742        1.6999608090
 C          0.2375303903        3.4643435820        1.4785104282
 C          0.5158158593        2.4708352380        0.5436336833
 N          1.8370787054        2.0307525637        0.3492457915
 S          2.2096806023        0.7853841402       -0.7057146397
 O          2.0675477626        1.2119273179       -2.0836346368
 O          1.4792947325       -0.3911895603       -0.3123633385
 C          3.9380518422        0.5825615288       -0.3205413195
 C          4.8843937301        1.2699727805       -1.0566078763
 C          6.2233642201        1.1285094812       -0.7275112709
 C          6.5914323582        0.3072818716        0.3275121375
 C          5.6307789793       -0.3786797170        1.0556699010
 C          4.2905055342       -0.2408501045        0.7314621815
 H          3.5082680173       -0.7589522509        1.2620309125
 H          5.9201170315       -1.0195075492        1.8728063972
 H          7.6338677268        0.1983433172        0.5817117616
 H          6.9725741583        1.6572837225       -1.2943353975
 H          4.5527898816        1.8862696427       -1.8767852991
 H          2.5402594642        2.7527124164        0.3923958550
 H          1.0395532754        3.9363305074        2.0235957538
 H         -1.3085795522        4.5812528461        2.4239280843
 H         -3.1233718157        3.4784858518        1.2691140235
 C         -2.8389425186        1.4061010624       -0.7423565495
 H         -2.6278649162        1.6568313420       -1.7972142934
 C         -4.3450586308        1.5429413662       -0.5736541457
 C         -5.0545927457        1.7378930423        0.7287809028
 C         -5.0931235307        2.8164624152       -0.3145384924
 H         -6.0198882096        2.9622011526       -0.8501673637
 H         -4.5378839927        3.7271488580       -0.1642517930
 H         -4.4512686498        1.8617385429        1.6130931229
 H         -5.9529001743        1.1628668315        0.9015666467
 H         -4.8268158462        0.8599443599       -1.2715303497
 O         -2.3719634797        0.0086124772        1.7490354802
