  62
        -98.94588026
 C         -1.6455318778       -1.3551851708       -0.1044874704
 C         -2.7572552683       -0.8896666520        0.6343598497
 C         -3.3395336292        0.3816475177        0.1832087202
 C         -2.7883175196        1.0225545386       -0.8643868295
 C         -3.2332568606        2.3614529785       -1.3762719590
 C         -2.4745747016        3.5025525888       -0.6839925485
 C         -2.4422657616        3.3930545282        0.8401434715
 H         -1.8652750110        2.5089545285        1.1222299012
 H         -1.9007038924        4.2629289985        1.2185363919
 C         -3.8259432517        3.3252031068        1.5013222413
 H         -4.5869230919        3.6800904765        0.8053876613
 H         -3.8368645823        3.9959064265        2.3631365316
 C         -4.2155785206        1.9368508263        2.0114562007
 H         -3.4165906004        1.5401763267        2.6434947606
 H         -5.1047921508        2.0417628054        2.6388651206
 C         -4.5374345997        0.8970604265        0.9307271102
 H         -4.9758686091        0.0276096760        1.4296000698
 H         -5.2772130899        1.3042589962        0.2385353603
 H         -2.9360094823        4.4489631685       -0.9713938882
 H         -1.4440236415        3.5002381497       -1.0437773184
 H         -3.0344325505        2.4029893490       -2.4481794290
 H         -4.3034441707        2.4706797875       -1.2109456691
 O         -1.7222635692        0.5413375997       -1.5531289996
 C         -1.1273020382       -0.6618316600       -1.1999812100
 O         -0.1692527079       -0.9951329389       -1.9182777101
 H          0.1681252914       -0.5334124600        1.4726482302
 C          0.9158605520       -1.2466237093        1.1467848800
 C          0.5069581930       -2.4204190094        0.5256888494
 C          1.4809028837       -3.3258320484        0.1253487592
 C          2.8230579935       -3.0496789575        0.3249266594
 C          3.2249658625       -1.8688107874        0.9210432700
 C          2.2585029417       -0.9586737583        1.3304345702
 N          2.6522199007        0.2591370118        1.9250797007
 S          3.6122669700        1.2801094729        1.0044988213
 O          4.9084253305        0.6726419340        0.8396846611
 O          3.5853091889        2.5483171326        1.6980886418
 C          2.8023700400        1.4293149029       -0.5764577288
 C          3.0310435809        0.4736756434       -1.5459068991
 C          2.3670004609        0.5769881134       -2.7567429792
 C          1.4981154701        1.6324675528       -2.9802371488
 C          1.2850227293        2.5875370723       -1.9993114585
 C          1.9341615492        2.4829339923       -0.7803023584
 H          1.7949145086        3.2046492018        0.0093651718
 H          0.6132591187        3.4116464718       -2.1822685182
 H          0.9782949902        1.7063513628       -3.9222694989
 H          2.5203478716       -0.1711417062       -3.5168465794
 H          3.7196892515       -0.3294147361       -1.3412973794
 H          1.8733708202        0.7870744210        2.2933918609
 H          4.2662961223       -1.6275538466        1.0612735202
 H          3.5678958341       -3.7623567168        0.0047267792
 H          1.1900340445       -4.2468778185       -0.3524598812
 C         -0.9690558068       -2.6483949604        0.3097365592
 H         -1.4241680567       -2.9271098312        1.2722519690
 C         -1.2635359659       -3.7400370903       -0.6991075813
 C         -1.3708905748       -5.1702715105       -0.2637142619
 C         -2.6013022654       -4.4139061313       -0.6623726517
 H         -3.0814551451       -4.6605330413       -1.5974207018
 H         -3.2884013657       -4.1056991822        0.1121958984
 H         -1.2284869247       -5.3875162208        0.7841598781
 H         -1.0080916141       -5.9404744000       -0.9276759821
 H         -0.8350640359       -3.5294352695       -1.6727133711
 O         -3.2344725579       -1.5020685027        1.6288259294
