  62
        -98.94571565
 C          0.9482725039        1.1582392912       -0.2579898656
 C          1.9721183481        1.1976166432        0.7254247093
 C          2.8691429670        0.0378663157        0.7854318074
 C          2.6785224322       -0.9804051265       -0.0725210454
 C          3.5652245373       -2.1865399436       -0.1799009266
 C          4.6894905729       -1.9588150476       -1.2005632231
 C          5.4437678267       -0.6431640628       -1.0087192481
 H          6.2311150882       -0.6063193906       -1.7648646094
 H          4.7660007714        0.1893327513       -1.2111581720
 C          6.0637820168       -0.4639014206        0.3840883081
 H          7.0828554562       -0.0887456364        0.2681876183
 H          6.1300477690       -1.4290633824        0.8874199250
 C          5.3235831412        0.5273916792        1.2838807137
 H          5.1764804334        1.4686477863        0.7482603814
 H          5.9571032469        0.7397935331        2.1492332939
 C          3.9634100858        0.0579308901        1.8154177622
 H          4.0705994516       -0.9227430389        2.2826566179
 H          3.6427272984        0.7712882803        2.5799402995
 H          5.3898694007       -2.7935497069       -1.1352287232
 H          4.2531780932       -1.9588845252       -2.2021332674
 H          3.9895247433       -2.4075582812        0.7974433783
 H          2.9608389876       -3.0328373069       -0.5077104003
 O          1.6778310741       -0.9950390350       -0.9859069192
 C          0.7818165681        0.0589597798       -1.1007872110
 O         -0.0808336716       -0.1227179206       -1.9819267532
 H         -1.9783514212        0.5957370414       -0.8121913279
 C         -2.1438208474        1.1692347056        0.0864140815
 C         -1.2207265345        2.1297843377        0.4780964644
 C         -1.4571224560        2.8538087552        1.6414003813
 C         -2.5938704542        2.6247237478        2.3954075869
 C         -3.5068554110        1.6605736122        2.0104598073
 C         -3.2762197292        0.9263405117        0.8508855818
 N         -4.1832905720       -0.0634084035        0.4554330873
 S         -3.7463913175       -1.3489312610       -0.5070143293
 O         -3.6464933516       -0.9333493373       -1.8825818057
 O         -4.7695967325       -2.3409197605       -0.2369335598
 C         -2.1861911319       -1.9798305091        0.0883763377
 C         -1.8402767904       -1.8594701632        1.4192493108
 C         -0.6556863682       -2.4295517300        1.8574113894
 C          0.1481847782       -3.1258127174        0.9694049906
 C         -0.2184415432       -3.2469419354       -0.3613144912
 C         -1.3928748021       -2.6643801474       -0.8088315537
 H         -1.6990578010       -2.7126694181       -1.8413738862
 H          0.4075639716       -3.7821393632       -1.0574024611
 H          1.0668273659       -3.5719342568        1.3170214212
 H         -0.3640438824       -2.3282680244        2.8905878928
 H         -2.4787004327       -1.3211562320        2.1006494834
 H         -4.8962494568       -0.3050244722        1.1269379932
 H         -4.3915258643        1.4719510771        2.5990727383
 H         -2.7669820549        3.1953753306        3.2949365407
 H         -0.7328582704        3.5890618439        1.9592215906
 C          0.0334624887        2.3704060639       -0.3268269383
 H          0.5929583651        3.1770814903        0.1669058943
 C         -0.2961933842        2.8160287918       -1.7368420040
 C         -0.7053058027        4.2389192450       -1.9677737489
 C          0.6318298316        3.7564997041       -2.4428371408
 H          0.7897649232        3.6246734269       -3.5027386205
 H          1.5112756724        4.0860895553       -1.9086164519
 H         -0.7305939808        4.8979483719       -1.1130629124
 H         -1.4705250835        4.4406281186       -2.7015829227
 H         -0.7764909607        2.0517481310       -2.3339312561
 O          2.1325589999        2.1687036335        1.5121579454
