  62
        -98.94418810
 C         -1.6963729698       -1.2971583189        0.2574808558
 C         -1.2950494285       -0.2301003677       -0.5760827951
 C         -1.8419044460        1.0980498457       -0.2558865194
 C         -2.6680804445        1.2256700366        0.7964880398
 C         -3.3611588526        2.4714967021        1.2758548524
 C         -4.7532339700        2.6101557570        0.6355071921
 C         -4.7765597779        3.3407478576       -0.7063603096
 H         -5.7928557589        3.2644838701       -1.0995548847
 H         -4.5669073335        4.3995291359       -0.5409743150
 C         -3.8008167000        2.8057909812       -1.7570695885
 H         -3.8187387671        1.7145634056       -1.7512510041
 H         -4.1524214292        3.1318061663       -2.7376994434
 C         -2.3615778384        3.3026812537       -1.5535880166
 H         -2.3601940405        4.1113503945       -0.8232459824
 H         -1.9891294193        3.7284922621       -2.4876244959
 C         -1.3576644443        2.2224083376       -1.1302347731
 H         -0.9599554825        1.7286199512       -2.0228365912
 H         -0.5041497093        2.6933880291       -0.6281407627
 H         -5.4025870253        3.1513774668        1.3266475221
 H         -5.1677521158        1.6058485931        0.5162336654
 H         -2.7478088200        3.3476214088        1.0866491732
 H         -3.4821151827        2.3595799579        2.3556335809
 O         -3.0389964646        0.1673330840        1.5708153101
 C         -2.5484810671       -1.1044440326        1.3418265471
 O         -2.9394125044       -1.9668952778        2.1567628914
 O         -0.5085504946       -0.3801251195       -1.5495400498
 C         -1.1215121269       -2.6831086330        0.0295534832
 C          0.3866239574       -2.6081549393       -0.0003749509
 C          1.1695456314       -3.3413109599       -0.8836705431
 C          2.5473486252       -3.2062804886       -0.8795473979
 C          3.1703922000       -2.3239815495       -0.0159311465
 C          2.3962800353       -1.5955846514        0.8796371964
 C          1.0224269411       -1.7665878808        0.9036646218
 H          0.4376838670       -1.1945923233        1.6097760946
 N          2.9745647020       -0.6660919905        1.7702262711
 S          2.5464391418        0.9443192384        1.5781456048
 O          3.3179078984        1.6556314816        2.5759313995
 O          1.1160903224        1.0918947286        1.6542201510
 C          3.1537304471        1.3727963822       -0.0442938702
 C          4.3738194421        2.0154744853       -0.1397766876
 C          4.8898294881        2.2961128903       -1.3941110704
 C          4.1842714686        1.9214271117       -2.5279506672
 C          2.9642491260        1.2736968803       -2.4139200638
 C          2.4384226692        0.9917405501       -1.1616912064
 H          1.4877983729        0.4918978462       -1.0547883550
 H          2.4093532420        0.9787113815       -3.2900524432
 H          4.5859340745        2.1359111304       -3.5057652783
 H          5.8377839054        2.8018455465       -1.4833821054
 H          4.8831847139        2.2897384250        0.7700455801
 H          3.9825223466       -0.7299643198        1.8231318546
 H          4.2423171728       -2.1961252031       -0.0325605409
 H          3.1419278450       -3.7812842577       -1.5728125631
 H          0.6990285175       -4.0138981448       -1.5821836745
 H         -1.4235004427       -3.2871257160        0.8982304023
 C         -1.7137549488       -3.2970546048       -1.2232532109
 C         -1.9174402440       -4.7785050729       -1.3210049113
 C         -3.0971290883       -3.8687810513       -1.1603847426
 H         -3.7561804254       -3.7205198422       -2.0026328832
 H         -3.5989365122       -3.8402025850       -0.2037522603
 H         -1.7706258948       -5.2576064657       -2.2772908253
 H         -1.6263282268       -5.3811858198       -0.4739777489
 H         -1.4360612776       -2.7555792354       -2.1203700020
