  62
        -98.94038524
 C         -2.4442305066       -1.0372508487        0.0406284485
 C         -2.4900294238        0.3615793021        0.2517423704
 C         -3.8120582464        0.9135990309        0.5838350072
 C         -4.8669549961        0.0843067425        0.6867226105
 C         -6.2759024401        0.5178955828        0.9685822610
 C         -7.0441776078        0.7888769028       -0.3324424472
 C         -6.2946581994        1.6881204829       -1.3154380803
 H         -5.4023854939        1.1656429036       -1.6681515829
 H         -6.9435268802        1.8358578523       -2.1814100167
 C         -5.8875906888        3.0529280603       -0.7427213999
 H         -6.4722098551        3.2688340233        0.1521691213
 H         -6.1223954904        3.8255085059       -1.4778828135
 C         -4.3983560554        3.1861431487       -0.4182707850
 H         -4.1836489504        4.2418144506       -0.2314581139
 H         -3.8049283690        2.8812766398       -1.2842180390
 C         -3.9071677750        2.3974054461        0.8023768159
 H         -2.8894374588        2.7310737241        1.0263548031
 H         -4.5396066855        2.6211339947        1.6639603097
 H         -7.2402149650       -0.1666646299       -0.8241186380
 H         -8.0031244849        1.2440591400       -0.0785425959
 H         -6.7778411652       -0.2811487624        1.5166502120
 H         -6.2578546493        1.4138037909        1.5859235704
 O         -4.7772466726       -1.2573007804        0.4984709454
 C         -3.5713814883       -1.8494608878        0.1623345548
 O         -3.6289420063       -3.0865427653        0.0101475427
 O         -1.4810625096        1.1113526920        0.1709771016
 C         -1.1332374468       -1.7023155791       -0.3341086278
 C         -0.0700105199       -1.4051471331        0.6956267514
 C         -0.3863448706       -1.5068274720        2.0479067714
 C          0.5622248339       -1.2416229120        3.0159851739
 C          1.8472935634       -0.8745907965        2.6576732107
 C          2.1811102576       -0.7932079997        1.3110770532
 C          1.2255537852       -1.0628051880        0.3407189895
 H          1.5080367392       -0.9852646456       -0.6952176540
 N          3.4984156605       -0.4840735395        0.9290617828
 S          3.8023385819        0.3908006141       -0.4810043592
 O          3.0872110212        1.6473167198       -0.4680009588
 O          3.5800887463       -0.4627632390       -1.6204769184
 C          5.5525593272        0.6728168219       -0.2820754985
 C          6.0056485254        1.9103190943        0.1331623896
 C          7.3675125957        2.1018295978        0.3078998582
 C          8.2476787729        1.0575181397        0.0683851715
 C          7.7779916316       -0.1791023917       -0.3493415871
 C          6.4181883558       -0.3765862552       -0.5275891003
 H          6.0080459035       -1.3161493765       -0.8589962464
 H          8.4658637459       -0.9876914233       -0.5370501675
 H          9.3066819111        1.2090315924        0.2056181967
 H          7.7357412311        3.0628730454        0.6290561544
 H          5.2846791293        2.6944808443        0.3005775260
 H          4.0442516554       -0.1168147643        1.6971442504
 H          2.5860647832       -0.6583008099        3.4144647781
 H          0.2976725347       -1.3137666943        4.0603996001
 H         -1.3931666005       -1.7862455332        2.3289346414
 H         -1.3263622334       -2.7857737600       -0.3216274747
 C         -0.7321061605       -1.2979312462       -1.7380802129
 C          0.0441317362       -2.2407981507       -2.6056857192
 C         -1.3966647950       -1.9596797168       -2.9063159980
 H         -1.6382284021       -1.3594999047       -3.7707731113
 H         -2.1239760029       -2.7288950911       -2.6895309733
 H          0.8016194009       -1.8324633101       -3.2582403093
 H          0.2954060768       -3.2059245120       -2.1921072882
 H         -0.5165920968       -0.2374437735       -1.8196202612
