  62
        -98.93677683
 C         -2.3201702352       -0.9415497709        0.2604810539
 C         -2.5281358156        0.2580379530       -0.4588207183
 C         -3.6145963397        1.1333058256        0.0232583078
 C         -4.3096178050        0.7820995985        1.1181845052
 C         -5.4765804286        1.5003702634        1.7366507798
 C         -6.8040759761        0.9336387132        1.2049569493
 C         -7.3043188486        1.5715959378       -0.0905375001
 H         -8.1680436755        0.9926568738       -0.4255301265
 H         -7.6515282970        2.5854532718        0.1194409720
 C         -6.2819585913        1.6315955634       -1.2285153700
 H         -6.8305166931        1.7477157616       -2.1653490187
 H         -5.7401184631        0.6858477394       -1.2875127357
 C         -5.2896736715        2.7955428707       -1.0872197855
 H         -5.2613222488        3.3609466058       -2.0210912819
 H         -5.6530178527        3.4816617935       -0.3223827240
 C         -3.8415609650        2.3908328102       -0.7716979818
 H         -3.2983528788        2.2292699813       -1.7081077983
 H         -3.3418629583        3.2214267215       -0.2617847991
 H         -7.5736594005        1.0692374145        1.9674770021
 H         -6.6742316688       -0.1419268242        1.0597891329
 H         -5.4238366913        1.3114623781        2.8108394990
 H         -5.4078701116        2.5702950960        1.5647649246
 O         -4.0546723346       -0.3642904231        1.8051096139
 C         -3.0816691770       -1.2509871822        1.3932650136
 O         -2.9866361637       -2.2710694416        2.1040387049
 H          0.1925827637        0.1419295770       -0.9047632112
 C          0.7313352138       -0.4894458601       -0.2133582590
 C          0.1071857113       -1.6159070401        0.3034305659
 C          0.8111693913       -2.4129414475        1.1984017632
 C          2.1064930043       -2.0894074959        1.5624814459
 C          2.7250345684       -0.9663239419        1.0430749861
 C          2.0285721470       -0.1608079354        0.1518485804
 N          2.6473876343        0.9924088039       -0.3712806075
 S          4.0719271273        0.7570236102       -1.2341147815
 O          4.1845788089        1.9028909328       -2.1099325463
 O          4.0959431994       -0.5414251422       -1.8682442216
 C          5.3483107803        0.8488070280        0.0044038960
 C          5.4638882812        2.0128328093        0.7388858607
 C          6.4601169289        2.1023598597        1.6979612329
 C          7.3207778061        1.0340318587        1.9030125032
 C          7.1936666847       -0.1264591519        1.1550433611
 C          6.1984576892       -0.2229678531        0.1948637717
 H          6.0579362601       -1.1063178710       -0.4072920344
 H          7.8638516817       -0.9556228319        1.3156319149
 H          8.0955730111        1.1067001037        2.6498550606
 H          6.5624543145        3.0032378734        2.2813323361
 H          4.7782286731        2.8206703483        0.5444090354
 H          2.0123866434        1.5636733214       -0.9118662259
 H          3.7332508372       -0.7084769231        1.3237995679
 H          2.6403234739       -2.7182541875        2.2584793531
 H          0.3315675799       -3.2870033659        1.6147502395
 C         -1.2905563901       -1.9915618840       -0.1285061083
 H         -1.5760499199       -2.8963148454        0.4247685162
 C         -1.3128392002       -2.3147416864       -1.6112759962
 C         -0.7668798205       -3.6294888947       -2.0762347081
 C         -2.2429605965       -3.3725857967       -2.1196792331
 H         -2.7155778633       -3.2251369641       -3.0791876933
 H         -2.8691372050       -3.8761605628       -1.3972863426
 H         -0.3928080829       -4.3092039149       -1.3256363376
 H         -0.2197992542       -3.6588976179       -3.0061456566
 H         -1.1499105941       -1.4514575958       -2.2431477389
 O         -1.8575671484        0.6084894539       -1.4689837263
