  62
        -98.93897809
 C         -1.6514769105       -1.4471357638        0.1609690488
 C         -1.6448022704       -0.2689710825       -0.6217140675
 C         -2.9620694049        0.3138656262       -0.9429920844
 C         -4.0809001358       -0.2748624312       -0.4816442482
 C         -5.5427972061        0.0658821950       -0.6829350177
 C         -5.9603440403        1.4338845108       -1.2162656292
 C         -5.6663239149        2.6043326628       -0.2786504641
 H         -6.3208169684        2.5251536541        0.5930258231
 H         -5.9175941990        3.5306771754       -0.7998628415
 C         -4.2302888257        2.6971694527        0.2321286860
 H         -4.0012476550        1.8252129829        0.8485684845
 H         -4.1616972663        3.5742396944        0.8816480489
 C         -3.1583120780        2.8357902149       -0.8474390501
 H         -2.2105119103        3.0522594986       -0.3454088319
 H         -3.3942772581        3.6843040895       -1.4929634489
 C         -2.9395983096        1.5932767493       -1.7283583906
 H         -1.9404758499        1.6677650016       -2.1675813116
 H         -3.6551483992        1.5561423380       -2.5463987370
 H         -7.0432516449        1.3929750621       -1.3617510692
 H         -5.5183651173        1.6095429398       -2.1924950246
 H         -5.9369936898       -0.7023986531       -1.3572974634
 H         -6.0219977540       -0.1009446344        0.2869306918
 O         -4.0348964028       -1.4124758535        0.2722485486
 C         -2.8397188289       -2.0112502687        0.6241851606
 O         -2.9655394298       -3.0257190905        1.3395476129
 H          2.0076768383       -0.7212125436        0.2953266226
 C          1.5414002212       -0.5653943297        1.2513020542
 C          0.3557601181       -1.2115595820        1.5581562273
 C         -0.2171748996       -0.9983054121        2.8101454597
 C          0.3859299096       -0.1604635559        3.7275061686
 C          1.5618835818        0.4982398437        3.4082954160
 C          2.1366402558        0.2996550175        2.1603891839
 N          3.3360935078        0.9404551015        1.7974846479
 S          3.3301198386        1.8703968974        0.3919470855
 O          4.4840582864        2.7350496855        0.5381845245
 O          2.0632874450        2.5396123652        0.2133999759
 C          3.6489903814        0.7144346126       -0.9221594272
 C          2.6699732830        0.4372142298       -1.8558269631
 C          2.9539558705       -0.4697192918       -2.8658004015
 C          4.1989728281       -1.0770944582       -2.9238375007
 C          5.1707106684       -0.7836921261       -1.9785477470
 C          4.8963343397        0.1227151459       -0.9674576624
 H          5.6232868024        0.3866495727       -0.2175953388
 H          6.1370322394       -1.2592602293       -2.0266450579
 H          4.4106635644       -1.7845466224       -3.7103621419
 H          2.1950798143       -0.7011871975       -3.5967813755
 H          1.7009409540        0.9027622417       -1.7599294263
 H          3.7580274641        1.4694108916        2.5486065710
 H          2.0284685370        1.1633224226        4.1198537666
 H         -0.0657093258       -0.0096111345        4.6967390529
 H         -1.1444384615       -1.5010617321        3.0506379194
 C         -0.3533439355       -2.1183374578        0.5808052863
 H         -0.6488806556       -3.0286539745        1.1211499034
 C          0.4871310581       -2.5071456312       -0.6164118890
 C          1.6048935643       -3.4910582755       -0.4498617493
 C          0.3616830165       -3.8857720129       -1.1877112391
 H          0.4122470513       -4.0050485427       -2.2593657024
 H         -0.3262409699       -4.5654528796       -0.7058498701
 H          1.7618500145       -3.9040809102        0.5350354109
 H          2.5122983052       -3.3372422739       -1.0140461677
 H          0.6306528496       -1.6925360501       -1.3148121902
 O         -0.5961152475        0.2737571781       -1.0560518329
