  62
        -98.94518372
 C          1.8101136954        1.4106246912       -0.0493798569
 C          2.9188322610        0.7044547325        0.4796338345
 C          3.3039625461       -0.5219496005       -0.2243178215
 C          2.6106195263       -0.9129944658       -1.3087091188
 C          2.8642050984       -2.1514818149       -2.1233247793
 C          2.1863729898       -3.3998605089       -1.5413818980
 C          2.8542645360       -3.9721527829       -0.2903361564
 H          2.4304160908       -4.9650615771       -0.1269158934
 H          3.9230745632       -4.0969403760       -0.4704759821
 C          2.6355539212       -3.1327552712        0.9764144720
 H          1.7877466733       -2.4597187832        0.8197737740
 H          2.3628378089       -3.7914807313        1.8052434188
 C          3.8556242502       -2.3252484920        1.4228246580
 H          4.6568799754       -3.0081778142        1.7150795493
 H          3.5747774830       -1.7403838814        2.3029362776
 C          4.4009792361       -1.3561038983        0.3654590677
 H          5.1093165100       -0.6816104765        0.8533797704
 H          4.9227457846       -1.9074709375       -0.4162821352
 H          1.1455655140       -3.1550209025       -1.3117751917
 H          2.1889574347       -4.1697114881       -2.3168240350
 H          2.4493956529       -1.9644182823       -3.1160776009
 H          3.9367653680       -2.3235825837       -2.2181877275
 O          1.5698381662       -0.1985140342       -1.8021529100
 C          1.0940047501        0.9270704291       -1.1474029618
 O          0.0605777514        1.4008532329       -1.6555927661
 O          3.5459026218        1.0738668340        1.5106900996
 C          1.2865409968        2.5982302594        0.7449589927
 C         -0.1765095804        2.3533509599        1.0127546302
 C         -1.2035192718        3.2096247396        0.6412535051
 C         -2.5261717923        2.8370994523        0.8162571535
 C         -2.8508517657        1.5954648497        1.3323603883
 C         -1.8282550005        0.7412854121        1.7220855832
 C         -0.5100548015        1.1360049499        1.5958617022
 H          0.2801454687        0.4541767179        1.8887684570
 N         -2.1539562169       -0.5827861194        2.1444944581
 S         -1.9574836191       -1.6521180782        0.8457596584
 O         -2.2900308642       -2.9623000039        1.3668494487
 O         -0.6389165173       -1.5430883715        0.2589918512
 C         -3.2173565156       -1.0958379545       -0.2744477529
 C         -4.5029791306       -1.5665031306       -0.0876324534
 C         -5.5135352877       -1.0984899526       -0.9110795597
 C         -5.2220610165       -0.1668398499       -1.8967681898
 C         -3.9267634442        0.2963755232       -2.0677741855
 C         -2.9078981151       -0.1686931703       -1.2495290922
 H         -1.8921572327        0.1821520352       -1.3571916948
 H         -3.6957833792        1.0239524511       -2.8291985181
 H         -6.0088873682        0.2019534101       -2.5358753604
 H         -6.5219597271       -1.4566471745       -0.7804475156
 H         -4.6764929192       -2.2898230444        0.6920884264
 H         -1.5603450793       -0.9057006443        2.8982709257
 H         -3.8755320778        1.2749106412        1.4274700068
 H         -3.3137359968        3.5101195741        0.5147615403
 H         -0.9682187940        4.1548020662        0.1799857265
 H          1.8282435735        2.5396541845        1.7046136619
 C          1.5924185173        3.9664131248        0.1598236996
 C          2.7827362495        4.1710404968       -0.7278736677
 C          1.3996288589        4.2885380588       -1.2905402075
 H          1.0375002906        5.2727025810       -1.5497669201
 H          1.0346549448        3.5032163781       -1.9325372686
 H          3.3695580935        5.0686793525       -0.6029131156
 H          3.3661784674        3.2988250737       -0.9862096914
 H          1.3800304411        4.7629399022        0.8666121150
