  62
        -98.93775932
 C         -1.9693066242       -0.8670094011        0.5629090567
 C         -2.2497627588       -0.2119918626       -0.6575182554
 C         -2.6006658540        1.2166144087       -0.5709536732
 C         -2.6004268471        1.8266883992        0.6288332541
 C         -2.8514452432        3.2710067480        1.0107171713
 C         -3.5219507278        4.2336268883        0.0335717681
 C         -4.9806161644        3.9099600362       -0.2866263238
 H         -5.5800967262        4.0824954340        0.6106333087
 H         -5.3224027272        4.6067347154       -1.0549907124
 C         -5.2510975061        2.4823889249       -0.7550044023
 H         -6.3220650799        2.3943365155       -0.9566179895
 H         -5.0165041857        1.7818364037        0.0490890995
 C         -4.5040290947        2.0560075604       -2.0173788166
 H         -4.9130802138        1.0919817871       -2.3306998291
 H         -4.6921473923        2.7753116312       -2.8165902329
 C         -2.9824876245        1.8818446166       -1.8618838780
 H         -2.6331679494        1.2196521672       -2.6595647868
 H         -2.4593433868        2.8288145448       -1.9729792857
 H         -2.9391081263        4.3078618122       -0.8796535510
 H         -3.4981194718        5.2196385119        0.5057062615
 H         -3.4348717173        3.2358579459        1.9364088067
 H         -1.8696109164        3.6770841027        1.2801077307
 O         -2.2888642524        1.1572249617        1.7790112418
 C         -1.9693681228       -0.1880385614        1.7779718262
 O         -1.7153425912       -0.6587141880        2.9074979504
 H          0.5570748718       -0.7474080971        0.4451505443
 C          0.6772153657       -1.6147918774       -0.1890268262
 C         -0.3446486154       -2.5526777732       -0.2678083082
 C         -0.1639121781       -3.6645035856       -1.0805845033
 C          1.0085573877       -3.8216226172       -1.7996087562
 C          2.0208521426       -2.8841315700       -1.7210774027
 C          1.8481326043       -1.7646463742       -0.9126772000
 N          2.8402822034       -0.7724922154       -0.8516478654
 S          2.9358770435        0.2542011412        0.4780846823
 O          2.9501607910       -0.5090310459        1.7069582122
 O          1.9176455223        1.2693642742        0.3612477760
 C          4.5414175246        0.9736737475        0.1875266591
 C          5.6343445740        0.5077382219        0.8933823944
 C          6.8827777424        1.0507844671        0.6321601844
 C          7.0166726294        2.0428363877       -0.3274091422
 C          5.9101931530        2.5014272287       -1.0271545498
 C          4.6590779683        1.9637478086       -0.7699601342
 H          3.7694188626        2.2925558657       -1.2816524048
 H          6.0174029317        3.2746071522       -1.7707310188
 H          7.9890632837        2.4632783477       -0.5295744415
 H          7.7437937805        0.6984168501        1.1768109272
 H          5.4792979199       -0.2598280423        1.6344796177
 H          3.7492959406       -1.0944883747       -1.1535007789
 H          2.9326623216       -3.0070767276       -2.2849161829
 H          1.1361053252       -4.6894934245       -2.4286571562
 H         -0.9418387395       -4.4068048451       -1.1523718189
 C         -1.5857699693       -2.3340062991        0.5652706971
 H         -1.3357298981       -2.5796982537        1.6092038615
 C         -2.7605698500       -3.1864220962        0.1296467809
 C         -2.9467656474       -4.5650402001        0.6863748898
 C         -3.8590037291       -3.4554706058        1.1123846289
 H         -4.8790243535       -3.4577560929        0.7587672366
 H         -3.7421760945       -3.0471726622        2.1062371532
 H         -3.3454026629       -5.3327515591        0.0404396565
 H         -2.2170562040       -4.9194764222        1.3988554577
 H         -3.0434332181       -3.0040836465       -0.9006510768
 O         -2.2062206619       -0.7895227672       -1.7757854520
