  62
        -98.94086941
 C         -2.2828602887       -0.9399913122       -0.2439907637
 C         -3.6054228829       -1.2007748651        0.1898195247
 C         -4.6415271913       -0.3109348161       -0.3450677285
 C         -4.3023481403        0.6642027301       -1.2078937987
 C         -5.2465948596        1.6409099570       -1.8550187086
 C         -5.5675639356        2.8645894798       -0.9857290475
 C         -6.4863424152        2.5925649804        0.2060560668
 H         -6.8000775154        3.5628678782        0.5960328553
 H         -7.3819782727        2.0748433301       -0.1384523755
 C         -5.8315247884        1.7930915988        1.3412107063
 H         -4.7452599100        1.8206425098        1.2262148133
 H         -6.0632979481        2.2642561892        2.2990654835
 C         -6.2834715265        0.3354923427        1.4324289758
 H         -5.7337356900       -0.1433950934        2.2466601700
 H         -7.3473987400        0.2964362759        1.6759367944
 C         -6.0443240105       -0.4813028184        0.1555740775
 H         -6.1864249634       -1.5383835354        0.3925990334
 H         -6.7604847633       -0.1952269809       -0.6141508097
 H         -6.0509845886        3.6033630756       -1.6290956898
 H         -4.6282327836        3.2961937599       -0.6319757582
 H         -4.7572795540        1.9861251745       -2.7683287425
 H         -6.1718411048        1.1322313088       -2.1267708117
 O         -3.0212238944        0.8696983024       -1.6164031800
 C         -1.9782574790        0.0944440925       -1.1283633836
 O         -0.8553248940        0.4206921688       -1.5601444507
 H          1.5479679277       -1.3068408832       -0.1145084101
 C          1.1373731184       -0.7801622258        0.7293020191
 C         -0.1974560151       -0.9246959477        1.0711400101
 C         -0.6885396234       -0.2211478577        2.1690641301
 C          0.1325191663        0.6187865800        2.8942513410
 C          1.4589756087        0.7807347238        2.5336205465
 C          1.9623769343        0.0766296213        1.4467617720
 N          3.3229398116        0.1939523041        1.0996661784
 S          3.7723012328        0.3783374685       -0.5189003227
 O          3.2060533445        1.5937701929       -1.0621087529
 O          3.5043681654       -0.8429316349       -1.2326654913
 C          5.5341187975        0.5718886017       -0.3108194428
 C          6.0969286136        1.8323469934       -0.3713926777
 C          7.4635879855        1.9670256481       -0.1821465923
 C          8.2395229687        0.8451289337        0.0664883267
 C          7.6605474380       -0.4141103414        0.1233851000
 C          6.2952710088       -0.5554146805       -0.0665060800
 H          5.8027433219       -1.5132426575       -0.0400033025
 H          8.2674917685       -1.2843896405        0.3142371342
 H          9.3025555559        0.9523249691        0.2138680777
 H          7.9165401279        2.9442457889       -0.2296119755
 H          5.4552718117        2.6745065641       -0.5756617873
 H          3.7827761900        0.9125588272        1.6450888495
 H          2.0999325493        1.4467478900        3.0918510213
 H         -0.2625946649        1.1597597033        3.7410827985
 H         -1.7292549361       -0.3398390089        2.4393124658
 C         -1.1532107223       -1.7986455750        0.2974907646
 H         -1.6302630439       -2.4949791670        1.0030825946
 C         -0.4993023235       -2.5992474511       -0.8070991875
 C          0.2317925998       -3.8651879098       -0.4775582994
 C         -1.0840477526       -3.9238528504       -1.1919820266
 H         -1.0945291302       -4.1978774109       -2.2362562574
 H         -1.9506168801       -4.2615300287       -0.6424042217
 H          1.1301218855       -4.0960313325       -1.0299062771
 H          0.2602456209       -4.1677740243        0.5582903219
 H         -0.1057319000       -1.9765285549       -1.6035470219
 O         -3.9037836874       -2.1294523967        0.9872903121
