  62
        -98.93886372
 C         -0.9978963304       -1.6771353289       -0.0029442902
 C         -1.9507466203       -1.2746913985        0.9579243097
 C         -2.8692728500       -0.1893290884        0.5660195895
 C         -2.7275405699        0.3765765313       -0.6464031907
 C         -3.5495188096        1.4750088414       -1.2719785409
 C         -3.8725197994        2.6850360816       -0.3813228312
 C         -5.3484635694        2.7717871720        0.0114217888
 H         -5.5858234492        3.8098690921        0.2548952785
 H         -5.9554947594        2.4935856520       -0.8525565412
 C         -5.7525986496        1.9140082324        1.2093178490
 H         -5.3397742995        2.3501243125        2.1218007789
 H         -6.8410634496        1.9570124326        1.2941657089
 C         -5.3247304699        0.4463567023        1.1406853493
 H         -5.9857213901       -0.1235996574        1.7972855694
 H         -5.4626921900        0.0534949521        0.1341567794
 C         -3.8818021600        0.2026309121        1.6078885894
 H         -3.5120288298        1.0804669621        2.1465505492
 H         -3.8656602402       -0.6190261678        2.3310818995
 H         -3.2462914694        2.6692468217        0.5096840988
 H         -3.6232215492        3.5890880615       -0.9396300114
 H         -2.9785848596        1.7964782711       -2.1449670310
 H         -4.4768986297        1.0388248915       -1.6508870208
 O         -1.7716557600       -0.0251903291       -1.5305486406
 C         -0.8824284502       -1.0445263392       -1.2407137903
 O         -0.0605565802       -1.2852224396       -2.1418808403
 O         -2.0326997404       -1.7981071282        2.1038985298
 C         -0.0221263006       -2.7891877691        0.3390311101
 C          1.3806035295       -2.2350668094        0.3186723000
 C          2.4232141394       -2.7894643997       -0.4103474099
 C          3.6721457795       -2.1903814500       -0.4151716300
 C          3.9105955498       -1.0362326299        0.3077253698
 C          2.8765937899       -0.4820497095        1.0517683596
 C          1.6287066898       -1.0822814093        1.0550622197
 H          0.8231676498       -0.6438941590        1.6318145496
 N          3.1039925301        0.7029114006        1.7876520494
 S          3.4653128004        2.0616908703        0.8743918191
 O          4.7756096804        1.8988963399        0.2989376192
 O          3.2948381907        3.1828773505        1.7709066988
 C          2.2307217405        2.1071486103       -0.4107858509
 C          1.0334668906        2.7447334606       -0.1541378811
 C          0.0560954306        2.7547358006       -1.1353971711
 C          0.2881260205        2.1194240203       -2.3453274210
 C          1.4893675104        1.4708586200       -2.5822059008
 C          2.4730420704        1.4628100800       -1.6069617108
 H          3.4215907403        0.9737428797       -1.7569582007
 H          1.6552376103        0.9601052998       -3.5164557307
 H         -0.4742478295        2.1180679303       -3.1081120710
 H         -0.8837959293        3.2504331109       -0.9515210412
 H          0.8953880407        3.2342066808        0.7971033388
 H          2.3429564802        0.9238285309        2.4151353293
 H          4.8708857099       -0.5465017601        0.2978373797
 H          4.4710383195       -2.6280494603       -0.9942943399
 H          2.2571288092       -3.6846798098       -0.9862819597
 H         -0.2608611507       -3.0842938588        1.3714154801
 C         -0.2242307008       -3.9820493992       -0.5698728697
 C          0.1535939888       -5.3552532292       -0.1032775894
 C         -1.2909278311       -4.9782745689       -0.2316199695
 H         -1.8687460911       -5.4083863689       -1.0358250294
 H         -1.8594037810       -4.8101924786        0.6715444205
 H          0.5667341587       -6.0487731094       -0.8199586692
 H          0.5659620388       -5.4499500891        0.8898687307
 H         -0.0828050308       -3.7379148395       -1.6164207197
