  62
        -98.94635904
 C         -1.7108934997       -1.3537063495       -0.0643196194
 C         -2.7227592697       -0.7690905893        0.7316647204
 C         -3.2678591897        0.5011909306        0.2384120701
 C         -2.8023921996        1.0263228404       -0.9099184100
 C         -3.2625876596        2.3121202702       -1.5431746503
 C         -2.5819539895        3.5681777003       -0.9807710006
 C         -3.0165053996        3.9702431207        0.4289341093
 H         -2.6256537695        4.9732257707        0.6118962991
 H         -4.1042542096        4.0323369907        0.4712252393
 C         -2.5098052496        3.0343793409        1.5355376796
 H         -1.6929654796        2.4203667208        1.1471133097
 H         -2.1000840196        3.6270766111        2.3569781494
 C         -3.5811354897        2.1166833811        2.1251424697
 H         -4.3415149697        2.7180115412        2.6281891496
 H         -3.1107553997        1.4752721212        2.8753384299
 C         -4.2714628897        1.2134386809        1.0943008299
 H         -4.8471450297        0.4569837810        1.6333659101
 H         -4.9535988996        1.7986932008        0.4782638898
 H         -1.4997470295        3.4200534903       -0.9917100705
 H         -2.8114299995        4.3945943102       -1.6572979907
 H         -3.0253610395        2.2377205500       -2.6065753203
 H         -4.3434897996        2.4068490103       -1.4363411403
 O         -1.8440699696        0.4199011602       -1.6587766498
 C         -1.2551038597       -0.7680137898       -1.2467836295
 O         -0.3641052797       -1.1903456400       -2.0035563894
 H          0.0706706102       -0.5178025692        1.5836779404
 C          0.8313168302       -1.1950507393        1.2136083206
 C          0.4419825002       -2.3704078694        0.5821241809
 C          1.4308928302       -3.2294062996        0.1226872811
 C          2.7688779802       -2.9053298696        0.2745199711
 C          3.1502171502       -1.7239174195        0.8827858308
 C          2.1681161102       -0.8634117593        1.3565574806
 N          2.5404517403        0.3562007908        1.9603322203
 S          3.4690176203        1.3843481905        1.0137963701
 O          4.8298895203        0.9100855205        1.0060896703
 O          3.2595808204        2.7032099807        1.5686401198
 C          2.7771188004        1.2763037102       -0.6250445099
 C          1.6010827304        1.9501751702       -0.8882373501
 C          1.0349449204        1.8417329799       -2.1469753301
 C          1.6400665704        1.0502655597       -3.1100061199
 C          2.8171408004        0.3766930897       -2.8287628197
 C          3.3951170004        0.4898949400       -1.5750486897
 H          4.3135253903       -0.0118985400       -1.3184388895
 H          3.2814528304       -0.2418810605       -3.5796016295
 H          1.1837276605        0.9538504795       -4.0820628599
 H          0.1147504105        2.3563473699       -2.3736169202
 H          1.1580491404        2.5556141804       -0.1117825002
 H          1.7530699203        0.8651299709        2.3367084402
 H          4.1863426502       -1.4474767495        0.9930414208
 H          3.5259488502       -3.5805952997       -0.0937955988
 H          1.1550158202       -4.1494539897       -0.3655150887
 C         -1.0357116298       -2.6267106894        0.4123958609
 H         -1.4680502599       -2.8383295992        1.4019143409
 C         -1.3497958898       -3.7825396396       -0.5132239089
 C         -1.3908674999       -5.1846140595        0.0149454514
 C         -2.6625773099       -4.4895181295       -0.3653891288
 H         -3.1804148498       -4.8084410697       -1.2574123787
 H         -3.3201346999       -4.1538817393        0.4233853611
 H         -1.0378760799       -5.9851365196       -0.6175124384
 H         -1.1885606499       -5.3303466293        1.0653285915
 H         -0.9778018798       -3.6220738498       -1.5187224789
 O         -3.1409555998       -1.2757188890        1.8083668105
