  62
        -98.93415315
 C         -1.6411803267       -0.3866181260       -0.2175448677
 C         -2.7701075335       -1.2009048561        0.0560560081
 C         -4.0847243031       -0.6220750249       -0.2498012260
 C         -4.1597662497        0.6250606232       -0.7468848044
 C         -5.4078468649        1.3535651566       -1.1708276010
 C         -6.4183539133        1.6830132434       -0.0552179350
 C         -7.5295379995        0.6404205913        0.1199127361
 H         -8.4712762745        1.1600024101        0.3083077390
 H         -7.6536714812        0.0987855170       -0.8186496739
 C         -7.3335688623       -0.3581450089        1.2646967901
 H         -7.5805674714        0.1304984305        2.2099979984
 H         -8.0447840170       -1.1744900517        1.1214122281
 C         -5.9287454025       -0.9442549032        1.4060307580
 H         -5.9746592876       -1.7717873726        2.1167273203
 H         -5.2621475583       -0.1976799164        1.8443282267
 C         -5.3005215137       -1.4354540844        0.0873908513
 H         -4.9642494399       -2.4683077161        0.1978094139
 H         -6.0261984879       -1.3944564726       -0.7236194901
 H         -5.8864157626        1.8363111511        0.8833983941
 H         -6.8828603214        2.6337890296       -0.3216629739
 H         -5.0599998525        2.2849400828       -1.6225317317
 H         -5.9055764388        0.7710103598       -1.9495788109
 O         -3.0545879649        1.3871024491       -0.9661623407
 C         -1.7735416059        0.9180723214       -0.6954522261
 O         -0.8793949139        1.7533190090       -0.9231349202
 O         -2.6820137974       -2.3636505227        0.5320721704
 C         -0.2722466038       -0.9703639301        0.0834699037
 C          0.5764666587        0.0190514759        0.8388972881
 C          0.2247099655        0.3470909001        2.1459443254
 C          0.9689320217        1.2570494392        2.8707307185
 C          2.0937044573        1.8427284602        2.3160457975
 C          2.4514119986        1.5243068552        1.0119387440
 C          1.6942868601        0.6181160895        0.2813931436
 H          1.9638431917        0.4270380674       -0.7430670322
 N          3.5840618521        2.0995299177        0.4221951560
 S          4.4965087389        1.2411198365       -0.6762675056
 O          5.8123179466        1.8404246197       -0.5927363161
 O          3.8870194782        1.2574357917       -1.9819074452
 C          4.5520604029       -0.4304437434       -0.0511011385
 C          4.1917750286       -1.4767655712       -0.8750351000
 C          4.2357611320       -2.7700310152       -0.3785925497
 C          4.6352149790       -2.9930687257        0.9297347308
 C          5.0006452589       -1.9319624059        1.7439509409
 C          4.9618328948       -0.6378442328        1.2512382168
 H          5.2472880556        0.2056580761        1.8581513500
 H          5.3132778573       -2.1093431989        2.7602725743
 H          4.6626664386       -3.9998249954        1.3156862015
 H          3.9541853928       -3.5962518335       -1.0121050098
 H          3.8798081693       -1.2572172970       -1.8837982941
 H          4.1461130534        2.6778880526        1.0278638279
 H          2.6793069432        2.5522772948        2.8804541634
 H          0.6782876225        1.5082026110        3.8796670109
 H         -0.6514685114       -0.1137230632        2.5813673371
 H         -0.4826047949       -1.8188575949        0.7558464892
 C          0.4414142195       -1.5482944631       -1.1292003813
 C         -0.3230577549       -2.1733862976       -2.2561366303
 C          0.4128430361       -0.8865966634       -2.4728332325
 H          1.3133506337       -0.8951708350       -3.0704142147
 H         -0.1557889229        0.0251368802       -2.5719162554
 H          0.0678838528       -3.0734701621       -2.7058514130
 H         -1.4017711743       -2.1409285119       -2.2082673586
 H          1.3711831613       -2.0347671099       -0.8491058381
