  62
        -98.93460880
 C         -1.9686046529       -0.2282871222        0.6469283382
 C         -2.6703735879       -0.3633806048       -0.5776700896
 C         -3.8914238811        0.4507556092       -0.7073372561
 C         -4.2428827404        1.2892950632        0.2824625148
 C         -5.4894016592        2.1245142060        0.3024872805
 C         -6.6478933549        1.3750760241        0.9757074063
 C         -6.8495675512       -0.0479111789        0.4544914545
 H         -5.9819142659       -0.6532701299        0.7264854972
 H         -7.7109336053       -0.4668387635        0.9793328429
 C         -7.0779474997       -0.1432203916       -1.0605125061
 H         -7.3718110431        0.8311140104       -1.4527567168
 H         -7.9059698192       -0.8304241769       -1.2469456154
 C         -5.8776066452       -0.6667405601       -1.8514591324
 H         -5.5222022813       -1.5982196093       -1.4038707791
 H         -6.2140773209       -0.8981683994       -2.8655214615
 C         -4.6882337080        0.2943352986       -1.9719288728
 H         -3.9976307521       -0.1213636344       -2.7114278941
 H         -5.0338067414        1.2650917617       -2.3330389424
 H         -6.4483185237        1.3216017775        2.0485697472
 H         -7.5631166934        1.9515981620        0.8292976616
 H         -5.7589788036        2.3910031715       -0.7176658580
 H         -5.2833676628        3.0374841516        0.8639384570
 O         -3.5110692464        1.4370844414        1.4167238523
 C         -2.3695868165        0.6851693840        1.6260901241
 O         -1.7997860775        0.9199079671        2.7130626262
 O         -2.3195646797       -1.1139347532       -1.5202460452
 C         -0.7012568169       -1.0165860947        0.9642850737
 C          0.3857796640       -0.6266576556       -0.0072123786
 C          0.6236493576       -1.2193621295       -1.2415491165
 C          1.6246541352       -0.7421723732       -2.0716428308
 C          2.4104521581        0.3323765235       -1.7003956962
 C          2.1798950747        0.9390652825       -0.4724256156
 C          1.1834189732        0.4537666928        0.3603312044
 H          1.0035019402        0.9391849443        1.3114698082
 N          2.9773649913        2.0280506772       -0.0772497217
 S          4.6354318516        1.8563634307       -0.2419422943
 O          5.2110090669        2.7119737753        0.7718172609
 O          5.0189252395        2.1462443685       -1.6012020763
 C          4.9551981497        0.1392966655        0.1237897966
 C          4.6340093278       -0.3261289294        1.3837241890
 C          4.8256335784       -1.6673068425        1.6719812909
 C          5.3321031130       -2.5164268769        0.6996572888
 C          5.6558771372       -2.0325873729       -0.5581620751
 C          5.4638977643       -0.6921257148       -0.8528227556
 H          5.6983882646       -0.2753097453       -1.8186665766
 H          6.0514735955       -2.6947323003       -1.3113153352
 H          5.4747390697       -3.5613485103        0.9256453137
 H          4.5740448766       -2.0453778852        2.6498521490
 H          4.2467833414        0.3611509455        2.1190279518
 H          2.7366720414        2.4025952316        0.8286903470
 H          3.1848872694        0.7198291818       -2.3423463006
 H          1.7887610129       -1.2144521363       -3.0281972802
 H          0.0054174723       -2.0301493570       -1.5813812352
 H         -0.3865464554       -0.6227836526        1.9427061810
 C         -0.9825600505       -2.4926817715        1.2175861011
 C         -1.3667417520       -3.5179014110        0.1951443087
 C         -0.0260826927       -3.5909334882        0.8603421723
 H          0.1429229049       -4.3746595830        1.5836449942
 H          0.8458835077       -3.3278842211        0.2824771900
 H         -2.1187966558       -4.2397681104        0.4826682658
 H         -1.4432233009       -3.2170961479       -0.8356798399
 H         -1.4886234869       -2.5994265295        2.1747875873
