  62
        -98.93888242
 C         -2.5516658747       -1.1949013108        0.3238579584
 C         -2.6284202247       -0.4620365336       -0.8832452307
 C         -3.3752775893        0.8092409512       -0.8296115844
 C         -3.9101183775        1.2057769387        0.3380356947
 C         -4.6505927405        2.4833741869        0.6226895968
 C         -3.6889949403        3.5624353264        1.1490777024
 C         -3.0024034077        4.3981001880        0.0692992381
 H         -3.7367400579        5.0625408744       -0.3908756166
 H         -2.2584929343        5.0249514620        0.5667153961
 C         -2.3074887951        3.5993347829       -1.0368064099
 H         -1.7516043201        2.7659813431       -0.6009364443
 H         -1.5725911587        4.2532133394       -1.5110932514
 C         -3.2787563328        3.0808549988       -2.1080253266
 H         -4.2421114195        3.5752352577       -1.9840281700
 H         -2.9092652391        3.3638586049       -3.0957807100
 C         -3.4762660424        1.5584505088       -2.1301197269
 H         -4.4439645215        1.3309671014       -2.5897196310
 H         -2.7116419354        1.1039631889       -2.7683340155
 H         -2.9334119535        3.0675115737        1.7652344344
 H         -4.2450768464        4.2416448391        1.7983889475
 H         -5.1822230071        2.8264512016       -0.2595925962
 H         -5.3766901935        2.2539178448        1.4053613849
 O         -3.7877583911        0.4805034570        1.4849618534
 C         -3.1042771440       -0.7208470349        1.5122275854
 O         -3.0520557229       -1.2602152516        2.6371835531
 H         -0.2137704188       -0.7502488732        1.5478869950
 C          0.3230410709       -1.2777725604        0.7675004193
 C         -0.3423612255       -2.2562847780        0.0380617609
 C          0.3540498548       -2.9266408840       -0.9576070721
 C          1.6755485372       -2.6080116955       -1.2219719592
 C          2.3307530596       -1.6289073345       -0.4985143278
 C          1.6453679266       -0.9578192450        0.5063878422
 N          2.3073709058        0.0312216227        1.2594997167
 S          3.0170132956        1.2969122249        0.4087782594
 O          3.0668512200        2.3988931638        1.3456968324
 O          2.3360760235        1.5454104507       -0.8407122224
 C          4.6734611809        0.7210079080        0.1028836480
 C          5.4444827672        0.3506360906        1.1873922983
 C          6.7374990022       -0.0961405523        0.9669852757
 C          7.2356664664       -0.1610754690       -0.3259722396
 C          6.4500123231        0.2181016508       -1.4035951462
 C          5.1548850970        0.6645026225       -1.1902550907
 H          4.5040956615        0.9631898146       -1.9966390291
 H          6.8388567983        0.1671367035       -2.4078920256
 H          8.2422899969       -0.5095436115       -0.4948478474
 H          7.3514445509       -0.3919735452        1.8022889472
 H          5.0199935957        0.4201547965        2.1749754613
 H          1.7452215600        0.3986038764        2.0143514932
 H          3.3578397501       -1.3760451289       -0.7052995950
 H          2.2025758921       -3.1304348456       -2.0056684918
 H         -0.1406933041       -3.6884563636       -1.5367952568
 C         -1.7930804069       -2.5104420207        0.3710833609
 H         -1.8459836515       -2.8516966248        1.4153228833
 C         -2.4558068422       -3.5435914424       -0.5141138753
 C         -2.2895824172       -5.0024928426       -0.2158935273
 C         -3.6064400927       -4.3320581930        0.0324498215
 H         -4.4341582531       -4.5573896416       -0.6230187698
 H         -3.9001690004       -4.1381525885        1.0541012389
 H         -1.6896449478       -5.2718358987        0.6401029560
 H         -2.2156643230       -5.6929668482       -1.0422583523
 H         -2.5108498880       -3.2324727568       -1.5505640175
 O         -2.0976936845       -0.8446271195       -1.9584026511
