  62
        -98.93835378
 C         -0.8188010596       -1.3021471902        0.6774493302
 C         -1.1224451900       -0.7067848896       -0.5692026594
 C         -2.0757134597        0.4208317006       -0.5424137984
 C         -2.5027417691        0.8893615102        0.6418993320
 C         -3.5071105988        1.9790054703        0.9034015929
 C         -4.9243153188        1.3966066905        1.0444205433
 C         -5.6980948294        1.2568239613       -0.2656484765
 H         -6.6291518295        0.7325073014       -0.0383337363
 H         -5.9632529694        2.2500172415       -0.6338742459
 C         -4.9657367501        0.5002429216       -1.3761258471
 H         -4.4797996401       -0.3831732687       -0.9577408977
 H         -5.7119985005        0.1491448121       -2.0914012070
 C         -3.9317486202        1.3635560617       -2.1141745472
 H         -4.0681507199        2.4068212616       -1.8321468467
 H         -4.1142682307        1.3068277523       -3.1892837971
 C         -2.4720197402        0.9494443813       -1.8936596580
 H         -2.2131117407        0.1471019316       -2.5919566085
 H         -1.8161518702        1.7902359913       -2.1393613079
 H         -4.8403639088        0.4201789703        1.5288909628
 H         -5.5020932084        2.0406470803        1.7106947438
 H         -3.2289480083        2.4342465598        1.8564559530
 H         -3.4704549890        2.7366097706        0.1267673832
 O         -2.0803311687        0.3654872196        1.8281251115
 C         -1.2564134389       -0.7420725506        1.8789806507
 O         -0.9782922485       -1.1226799212        3.0348080904
 H          1.8831246207       -0.6208615509        0.9735221594
 C          2.1138217202       -1.2808296606        0.1493830290
 C          1.2782872299       -2.3608780603       -0.1098644312
 C          1.5963109992       -3.2146308399       -1.1572245617
 C          2.7178953389       -2.9778077298       -1.9323733721
 C          3.5404540093       -1.8960801800       -1.6805796220
 C          3.2348575299       -1.0403866305       -0.6267612814
 N          4.0685658503        0.0441760692       -0.3359980013
 S          3.6545575510        1.3028662589        0.6576242495
 O          4.7221276311        2.2610254187        0.4598958794
 O          3.4705964815        0.8395110083        2.0109505993
 C          2.1442836908        2.0229471195        0.0401231004
 C          2.0898909504        2.4210503701       -1.2807742694
 C          0.9689952703        3.0979969605       -1.7318353186
 C         -0.0685035493        3.3771993304       -0.8556045380
 C         -0.0051549588        2.9603024897        0.4643982318
 C          1.1093474613        2.2730753193        0.9170918010
 H          1.1941429417        1.9322866688        1.9379509508
 H         -0.8114841284        3.1740673296        1.1469911023
 H         -0.9282264793        3.9316721707       -1.1977783573
 H          0.9122112599        3.4149838010       -2.7608622084
 H          2.9227766400        2.2127196502       -1.9320259698
 H          4.7746549400        0.2708233994       -1.0178166115
 H          4.4118927590       -1.7105633199       -2.2892429222
 H          2.9509483584       -3.6424966794       -2.7503651225
 H          0.9531791889       -4.0485097796       -1.3846914518
 C          0.0711528602       -2.5284268904        0.7789308893
 H          0.4266828407       -2.5376282510        1.8233093491
 C         -0.6637816002       -3.8427647502        0.5577675590
 C         -2.1143823300       -3.9826067600        0.9089038796
 C         -1.6838602507       -4.0187295895       -0.5250992406
 H         -1.7205628111       -4.9647636092       -1.0451842610
 H         -1.8994602708       -3.1675627391       -1.1508842101
 H         -2.6279294397       -3.1033505001        1.2706642602
 H         -2.4430148000       -4.8999215402        1.3740367693
 H         -0.0340625102       -4.6989253204        0.7799702284
 O         -0.6473281006       -1.0970067492       -1.6661538597
