  62
        -98.93812700
 C          1.9247655986        0.3910959326       -0.6591657354
 C          3.0174701955        1.2021344058       -0.2715059471
 C          4.3500723084        0.5804411678       -0.3334521047
 C          4.4625812305       -0.6951147176       -0.7419267674
 C          5.7163768779       -1.5138156431       -0.9238130716
 C          6.7945910020       -1.4119059634        0.1640068191
 C          6.2630471019       -1.1817800272        1.5862169835
 H          5.1825811669       -1.3341176436        1.6112422113
 H          6.7108854182       -1.9187318607        2.2555518957
 C          6.5961707377        0.2098811554        2.1295635585
 H          6.5332083627        0.1852258412        3.2201307572
 H          7.6290181013        0.4496482786        1.8676154085
 C          5.6837501333        1.3376939180        1.6491226050
 H          6.0967631347        2.2820297782        2.0117152195
 H          4.6928293327        1.2284238729        2.0978175329
 C          5.4964409988        1.4349756649        0.1262214069
 H          6.4160055599        1.1919817140       -0.4004099511
 H          5.2194301025        2.4652987118       -0.1127244208
 H          7.4916058612       -0.6136960135       -0.0874082320
 H          7.3613282782       -2.3440442904        0.1335658606
 H          5.3704531704       -2.5473880312       -1.0011069216
 H          6.1566872648       -1.2494972775       -1.8897435901
 O          3.3803081110       -1.4436283864       -1.0986483223
 C          2.0918724423       -0.9319104449       -1.0642072948
 O          1.2115913285       -1.7412351290       -1.4127924581
 O          2.8869898468        2.3979890939        0.1030900194
 C          0.5267620160        0.9847580354       -0.6220426065
 C         -0.3169893056        0.2095707252        0.3582547639
 C          0.0601828416        0.2118855357        1.7000091195
 C         -0.6501315902       -0.5132394415        2.6354950466
 C         -1.7593677702       -1.2492472365        2.2549766105
 C         -2.1455677614       -1.2583685704        0.9205925876
 C         -1.4288276211       -0.5258481789       -0.0180905781
 H         -1.7381289045       -0.5706358828       -1.0480776117
 N         -3.2515222102       -2.0188752754        0.5098873616
 S         -4.3893385211       -1.4046295830       -0.5465132352
 O         -5.4934360419       -2.3352538245       -0.4655818736
 O         -3.8160973184       -1.2044166964       -1.8521114113
 C         -4.8654297689        0.1571175319        0.1713544762
 C         -5.8476733917        0.1610663294        1.1429558539
 C         -6.1855034243        1.3589848350        1.7509784803
 C         -5.5317052760        2.5261235236        1.3854753275
 C         -4.5472735311        2.5049104443        0.4097398691
 C         -4.2075082655        1.3102352825       -0.2057854105
 H         -3.4509474469        1.2571448167       -0.9708277959
 H         -4.0410366336        3.4133085067        0.1243870185
 H         -5.7921833333        3.4585511826        1.8610323937
 H         -6.9540480244        1.3792711984        2.5067704459
 H         -6.3376042024       -0.7671017573        1.3890116587
 H         -3.6991551557       -2.5368192052        1.2517042581
 H         -2.3126829573       -1.8237620075        2.9823151958
 H         -0.3422316526       -0.5055720333        3.6701690379
 H          0.9292502509        0.7846254143        1.9939191831
 H          0.6579905352        2.0045498848       -0.2318120452
 C         -0.0579275306        1.0704478209       -2.0149103144
 C         -1.1057738510        2.0963936459       -2.3232058200
 C          0.2801239428        2.2517733107       -2.8722123991
 H          0.4404144181        2.0927385647       -3.9280258829
 H          0.9180915550        3.0103769977       -2.4427396016
 H         -1.9017661465        1.8307045725       -3.0033847990
 H         -1.4036892001        2.7581419748       -1.5236927973
 H         -0.1273480128        0.1065344475       -2.5068351695
