  62
        -98.94504765
 C         -2.4525595027       -1.2121438407       -0.0960800114
 C         -3.3219147201       -0.5937869654        0.8414362571
 C         -4.0467324894        0.5911441787        0.3739684121
 C         -3.8721262309        1.0223167154       -0.8880649592
 C         -4.5460871126        2.2090355537       -1.5210526614
 C         -3.8524630246        3.5462975049       -1.2267418175
 C         -4.0260638171        4.0684446293        0.2001152665
 H         -3.6835066023        5.1050724880        0.2044602679
 H         -5.0857390312        4.0738048613        0.4574124111
 C         -3.2399065268        3.2860041346        1.2615786218
 H         -2.4619442904        2.6911584843        0.7757385853
 H         -2.7315162595        3.9870324553        1.9274887015
 C         -4.0946956341        2.3691584214        2.1370502644
 H         -4.7839601200        2.9713983856        2.7329470335
 H         -3.4308647619        1.8368866356        2.8228695566
 C         -4.9061280045        1.3260188395        1.3577838608
 H         -5.2970599019        0.5945055945        2.0690573825
 H         -5.7432963916        1.8032476775        0.8491385181
 H         -2.7873663376        3.4446097114       -1.4503040384
 H         -4.2666932507        4.2867621077       -1.9150124425
 H         -4.5251193322        2.0402728441       -2.5998659484
 H         -5.5857440789        2.2574307021       -1.1961064543
 O         -3.0476709458        0.3920527055       -1.7641956967
 C         -2.2993138969       -0.7154712048       -1.3903520881
 O         -1.5702461908       -1.1484241426       -2.3064403264
 O         -3.4876792342       -1.0200382617        2.0146564008
 C         -1.6537546700       -2.4095394512        0.3968582069
 C         -0.2509160423       -1.9511692196        0.7145988676
 C          0.1266884294       -1.6976541203        2.0289016407
 C          1.3854004033       -1.2015996525        2.3184196913
 C          2.2879076637       -0.9359998817        1.3038144108
 C          1.9146946858       -1.1731810001       -0.0122423984
 C          0.6625825029       -1.6951526130       -0.2983948596
 H          0.3743109216       -1.8521052805       -1.3268577851
 N          2.8148975683       -0.8627936272       -1.0545155088
 S          3.2457422695        0.7624441284       -1.1605310768
 O          2.2109084741        1.6207379197       -0.6282126942
 O          3.6146849349        0.9772879118       -2.5429896168
 C          4.7086655496        0.8696417377       -0.1501193677
 C          4.7370157463        1.7222410235        0.9359455350
 C          5.8875921004        1.7869875479        1.7067559101
 C          6.9831107520        1.0030151017        1.3787461840
 C          6.9393987061        0.1538793430        0.2827505712
 C          5.7927406272        0.0848152735       -0.4921913933
 H          5.7167571099       -0.5575495694       -1.3535299101
 H          7.7935097678       -0.4536640882        0.0306623005
 H          7.8763282378        1.0542776239        1.9810983257
 H          5.9231149284        2.4466134334        2.5588999436
 H          3.8581433031        2.3074728432        1.1551407781
 H          2.4795003257       -1.1734078830       -1.9566625228
 H          3.2659301209       -0.5378927474        1.5200244042
 H          1.6644805413       -1.0124904150        3.3437503862
 H         -0.5864583114       -1.8722353226        2.8216947113
 H         -2.1332677671       -2.7034893291        1.3400455280
 C         -1.6885749112       -3.5920309801       -0.5483985847
 C         -1.3218474854       -4.9477830468       -0.0257972296
 C         -2.7468208489       -4.6375163800       -0.3699927851
 H         -3.1770560843       -5.0884960157       -1.2515848194
 H         -3.4504628444       -4.5035367503        0.4385529995
 H         -0.7708351101       -5.6159335575       -0.6695582420
 H         -1.0585168931       -5.0245206254        1.0181770107
 H         -1.4050851402       -3.3478950484       -1.5637868719
