  62
        -98.93431711
 C          2.0179604985        0.3338179651       -0.1963325843
 C          3.0976658529        1.2503967330       -0.2616322872
 C          4.3419380575        0.8400180348        0.3996376925
 C          4.3828468558       -0.3422180944        1.0404797262
 C          5.5966757991       -0.9084710387        1.7174254084
 C          6.4119380804       -1.7834098714        0.7550676452
 C          6.6951071459       -1.1200404462       -0.5928223501
 H          7.3010275955       -1.8163073412       -1.1767783144
 H          5.7527027034       -0.9871972483       -1.1292106879
 C          7.4181235836        0.2307498126       -0.4965362375
 H          8.2190950204        0.2524324901       -1.2385249629
 H          7.8830582124        0.3327979512        0.4846744656
 C          6.5294954770        1.4467321789       -0.7652411054
 H          5.9899352904        1.3052397731       -1.7051174826
 H          7.1762890861        2.3195611224       -0.8877566502
 C          5.5097192280        1.7834515348        0.3299657925
 H          6.0143154071        1.8439799720        1.2963114346
 H          5.0874177201        2.7659356775        0.0998773803
 H          7.3545634887       -2.0439669647        1.2398596294
 H          5.8570428217       -2.7065901384        0.5722972746
 H          6.2111443255       -0.0920943636        2.0920174728
 H          5.2668249658       -1.5196067873        2.5591889088
 O          3.3216896913       -1.1836856287        1.1053397709
 C          2.1161717531       -0.8827782569        0.4805146934
 O          1.2493739916       -1.7635640083        0.6176539676
 O          3.0197097204        2.3652247357       -0.8451836694
 C          0.7217330830        0.7350715219       -0.8924098241
 C         -0.4186853228        0.6376144148        0.0862752332
 C         -0.5360703290        1.6846573852        1.0031535513
 C         -1.5034418225        1.6780637386        1.9875259572
 C         -2.4081855471        0.6334611420        2.0657792265
 C         -2.3057681550       -0.4123888314        1.1601931008
 C         -1.3106804018       -0.4182396974        0.1906494372
 H         -1.2547273969       -1.2747248947       -0.4549244038
 N         -3.2304493614       -1.4816185407        1.1783362865
 S         -4.2738944867       -1.5456631671       -0.1295165021
 O         -5.2560324580       -2.5531712803        0.2025405267
 O         -3.5245042165       -1.7455824204       -1.3411032779
 C         -5.0408138796        0.0663816965       -0.1455192858
 C         -4.3730238341        1.1186585203       -0.7404309477
 C         -4.9290898042        2.3864687553       -0.6749941012
 C         -6.1352302552        2.5797945459       -0.0190847578
 C         -6.7947281844        1.5125670329        0.5716842735
 C         -6.2408310677        0.2437417793        0.5148947826
 H         -6.7187355286       -0.6153721596        0.9576210839
 H         -7.7339324284        1.6653938655        1.0785314039
 H         -6.5631721848        3.5685963551        0.0305343018
 H         -4.4147813771        3.2160400019       -1.1328861206
 H         -3.4380052479        0.9322256133       -1.2439190122
 H         -3.7680957457       -1.5347464746        2.0326374534
 H         -3.1773342511        0.6234226275        2.8236101098
 H         -1.5630743157        2.4952424245        2.6898996120
 H          0.1643617734        2.5063433108        0.9411693152
 H          0.8595235235        1.8087780867       -1.0992857364
 C          0.6409438034        0.0781421170       -2.2643583281
 C          0.4436587494       -1.3842432430       -2.5229379053
 C         -0.6027260796       -0.3986588840       -2.9516234338
 H         -0.7000590958       -0.1952007072       -4.0083284363
 H         -1.5429178914       -0.3960848573       -2.4239315957
 H          1.0564393554       -1.8491980485       -3.2828852915
 H          0.2478773528       -2.0310219808       -1.6825161517
 H          1.3712857178        0.5505471699       -2.9186918105
