  62
        -98.94258410
 C         -1.4600770636       -1.0981681449        0.2295926061
 C         -2.4414832862       -0.7751617003        1.1996863331
 C         -3.0912950906        0.5322045112        1.0501148382
 C         -2.6816967375        1.3718920548        0.0825983550
 C         -3.2293345348        2.7478986751       -0.1837988378
 C         -4.4981676190        2.7554326609       -1.0476339634
 C         -5.7659438607        2.2644274937       -0.3474760834
 H         -5.8929065594        2.8023011539        0.5926561071
 H         -6.6087715824        2.5284795857       -0.9893242229
 C         -5.8011096834        0.7520121660       -0.0862366889
 H         -6.7759825972        0.3544100657       -0.3772930229
 H         -5.0549555458        0.2569661872       -0.7122717165
 C         -5.5674730632        0.3546067129        1.3715284069
 H         -5.5749792427       -0.7367816277        1.4354293351
 H         -6.3846797825        0.7321480439        1.9901532240
 C         -4.2401730114        0.8547009572        1.9567428618
 H         -4.0688821121        0.3421458479        2.9067967577
 H         -4.2915320888        1.9273724682        2.1431162161
 H         -4.3178654046        2.1507351825       -1.9393578504
 H         -4.6649806676        3.7850659022       -1.3723466933
 H         -3.4281937116        3.2541270456        0.7613737677
 H         -2.4502611475        3.2986919446       -0.7150206342
 O         -1.6757266300        1.0607409485       -0.7752636790
 C         -1.0555739258       -0.1850665624       -0.7471032772
 O         -0.1800181622       -0.3291067694       -1.6165544128
 O         -2.7535792332       -1.5396135782        2.1521384478
 C         -0.7788816056       -2.4510691065        0.3363838706
 C          0.7143047765       -2.2787627838        0.2141071492
 C          1.4980177182       -2.9293562750       -0.7283839637
 C          2.8594987576       -2.6861453267       -0.7963614761
 C          3.4658076741       -1.7903822666        0.0638497294
 C          2.6891364049       -1.1322149871        1.0091810531
 C          1.3305812001       -1.3882851252        1.0857416683
 H          0.7273175143       -0.8696295014        1.8215696556
 N          3.2907138224       -0.1956881077        1.8732447936
 S          4.2091843035        1.0048133065        1.1473599697
 O          5.5125495170        0.4762932748        0.8303435514
 O          4.1888086582        2.1103302308        2.0803626980
 C          3.3431196201        1.4326250648       -0.3506246892
 C          3.8735111906        1.0859594428       -1.5756507351
 C          3.1621464684        1.3955802376       -2.7233574409
 C          1.9403009064        2.0410189673       -2.6261001852
 C          1.4224766132        2.3852989851       -1.3877706167
 C          2.1264722668        2.0751027419       -0.2370984375
 H          1.7508651683        2.3284087642        0.7425066113
 H          0.4645915745        2.8751408297       -1.3158540924
 H          1.3805944766        2.2717047040       -3.5184941776
 H          3.5587577904        1.1260416101       -3.6889997555
 H          4.8276530561        0.5858018887       -1.6069585407
 H          2.6421267822        0.2145763526        2.5297634942
 H          4.5221980904       -1.5813181666        0.0166716947
 H          3.4557481801       -3.1956382144       -1.5377754538
 H          1.0411611847       -3.6086120392       -1.4287486718
 H         -0.9977649801       -2.7863331271        1.3646449566
 C         -1.3478475950       -3.5125745804       -0.5928172611
 C         -2.7661299487       -3.4368676864       -1.0717653656
 C         -1.6381107195       -3.2382895406       -2.0368998587
 H         -1.4390311460       -4.0189160724       -2.7565278305
 H         -1.4405768213       -2.2440193912       -2.4048835959
 H         -3.3388949552       -4.3506289646       -1.1258506922
 H         -3.3487054818       -2.5751476851       -0.7793412472
 H         -0.9787989756       -4.5041779303       -0.3493575773
