  62
        -98.94315024
 C         -1.2341125020       -1.0951086735       -0.0404494708
 C         -1.7673131345       -0.0828685570        0.7939099061
 C         -2.6634949995        0.8825824949        0.1441453566
 C         -2.9193257443        0.7597260577       -1.1710878699
 C         -3.8559560142        1.6394226595       -1.9466013756
 C         -5.2798677858        1.0657242117       -1.9525503616
 C         -5.7930612832        0.6706794085       -0.5677168869
 H         -6.8160943050        0.3089399469       -0.6918003925
 H         -5.1998223361       -0.1668427559       -0.1935812242
 C         -5.7738067794        1.8066338345        0.4647264245
 H         -6.7211033616        1.8015260506        1.0080298239
 H         -5.6986394474        2.7683340522       -0.0442366396
 C         -4.6606590811        1.6959823398        1.5081732460
 H         -4.8696674052        2.4149293705        2.3047466349
 H         -4.6767306936        0.6987811349        1.9548609866
 C         -3.2402487584        1.9744258024        1.0005879632
 H         -3.2196975149        2.9303643663        0.4732849555
 H         -2.5847916468        2.0456519129        1.8732074477
 H         -5.2925186024        0.1775896383       -2.5887463227
 H         -5.9487031609        1.8075759247       -2.3929096694
 H         -3.8573374802        2.6360563424       -1.5091459132
 H         -3.4962153790        1.7047527861       -2.9750325249
 O         -2.3807546332       -0.2190441048       -1.9434580924
 C         -1.5249357063       -1.1711230148       -1.4026568224
 O         -1.0957133164       -1.9999293551       -2.2271611155
 H          0.8319886314       -0.0355527531       -0.7805085902
 C          1.5312590914       -0.8494598453       -0.6338956471
 C          1.1118275004       -2.0017290089        0.0141124755
 C          2.0392029600       -3.0238583381        0.1936543728
 C          3.3404943617       -2.8894972737       -0.2571339875
 C          3.7507773924       -1.7362602123       -0.9037336249
 C          2.8304838783       -0.7192228855       -1.1014772102
 N          3.2487777016        0.4807477420       -1.7350215686
 S          4.0066870006        1.5370121463       -0.6736746961
 O          4.1529412372        2.7862965746       -1.3857933479
 O          5.2197864207        0.9160129265       -0.2085275154
 C          2.8486405465        1.7175405129        0.6699329506
 C          1.8583134021        2.6742970366        0.5706306349
 C          0.8887490215        2.7408875609        1.5580458506
 C          0.9178333103        1.8454373497        2.6159426232
 C          1.9169413078        0.8882671216        2.6982064945
 C          2.8909129066        0.8173227485        1.7156910707
 H          3.6806439017        0.0838021062        1.7412716369
 H          1.9285917029        0.1882551071        3.5178654988
 H          0.1488636927        1.8802679616        3.3706540741
 H          0.1061283110        3.4802418012        1.4940027710
 H          1.8691203214        3.3514492335       -0.2692570295
 H          2.4834050601        0.9712348673       -2.1777550539
 H          4.7636790508       -1.6036346755       -1.2465743041
 H          4.0456384295       -3.6916122122       -0.1021959874
 H          1.7377380429       -3.9291623240        0.6955283940
 C         -0.2878609612       -2.1045317653        0.5732336428
 H         -0.2344842605       -1.8349699275        1.6397682369
 C         -0.8479328742       -3.5104076557        0.4573011547
 C         -0.6997414440       -4.4910260105        1.5810898802
 C         -2.0376498317       -3.8837754051        1.2890374813
 H         -2.8050161836       -4.5005425198        0.8459088399
 H         -2.4181481671       -3.1363754142        1.9702056867
 H         -0.5470610835       -5.5319533996        1.3386487495
 H         -0.1863301005       -4.1629299733        2.4724395962
 H         -0.8132278927       -3.8878628749       -0.5583062593
 O         -1.5031992275        0.0089931182        2.0211319554
