  62
        -98.95211785
 C         -2.3594994789       -0.3339995728        0.0407198506
 C         -1.5157808897        0.2330725983       -0.9422440594
 C         -1.5158507215        1.6989719783       -1.0246728693
 C         -2.2934685123        2.4041154673       -0.1833270192
 C         -2.4036147941        3.9012006671       -0.1653974690
 C         -1.4127666248        4.5395412283        0.8161275109
 C          0.0250912658        4.0441587101        0.6601927307
 H          0.0855557071        2.9962157901        0.9633076406
 H          0.6406036752        4.6095682108        1.3643285806
 C          0.6025696954        4.1921403509       -0.7543141694
 H          1.6208257950        4.5786584222       -0.6731282795
 H          0.0212351045        4.9209426102       -1.3213080593
 C          0.6867340270        2.8791189011       -1.5351471495
 H          1.1417048680        2.1172095316       -0.8970812996
 H          1.3478232367        3.0317023020       -2.3927788196
 C         -0.6438461424        2.3341078395       -2.0708061794
 H         -0.4154369515        1.5419224998       -2.7898165695
 H         -1.1829686835        3.1275523188       -2.5934673792
 H         -1.7402755944        4.3183649678        1.8347667809
 H         -1.4429186161        5.6224344483        0.6772739410
 H         -2.2280833247        4.2809878374       -1.1703368590
 H         -3.4188538844        4.1629482059        0.1393122511
 O         -3.0730196214        1.8255075562        0.7667287209
 C         -3.1116497797        0.4486964262        0.9142034508
 O         -3.8490053991        0.0483941052        1.8397391008
 H         -0.4408531280       -0.8676027306        1.6534375403
 C         -0.1447187769       -1.7711493602        1.1403896802
 C         -1.0561097762       -2.4296784312        0.3251482503
 C         -0.6524226149       -3.5983339807       -0.3091571599
 C          0.6390366957       -4.0716517591       -0.1531020201
 C          1.5587712050       -3.3812879080        0.6149177199
 C          1.1607511236       -2.2174438186        1.2622797500
 N          2.0624981028       -1.4621022975        2.0411742800
 S          2.3859626708        0.1019414029        1.5294828901
 O          3.3548773003        0.6123624740        2.4760992100
 O          1.1583807299        0.8433943314        1.4118383303
 C          3.1731707708       -0.1031916360       -0.0589718301
 C          4.5496808207        0.0020111557       -0.1255972702
 C          5.1835271208       -0.2135123534       -1.3380404003
 C          4.4333365311       -0.5391362642       -2.4582479802
 C          3.0541403212       -0.6450815159       -2.3729762201
 C          2.4107756811       -0.4275739668       -1.1634868900
 H          1.3365367112       -0.5001853482       -1.0859649999
 H          2.4624733814       -0.8967236466       -3.2384693900
 H          4.9250646812       -0.7101972735       -3.4029451403
 H          6.2562534307       -0.1290322621       -1.4050401904
 H          5.0889714405        0.2594651063        0.7717580797
 H          2.9375156534       -1.9356131164        2.2216841698
 H          2.5743634354       -3.7342718068        0.7135188697
 H          0.9385539368       -4.9801104387       -0.6529230602
 H         -1.3482500243       -4.1359905815       -0.9322851598
 C         -2.4395645970       -1.8435544029        0.1834429205
 H         -2.9944385766       -2.0344039937        1.1141757006
 C         -3.2195615164       -2.4268070238       -0.9784307794
 C         -4.0517270649       -3.6592776248       -0.7936609094
 C         -4.7142864765       -2.3263649856       -0.9654206592
 H         -5.2258826569       -2.1171739162       -1.8928819792
 H         -5.1692104670       -1.8617378863       -0.1023893291
 H         -4.0697816042       -4.1088793149        0.1876399505
 H         -4.1137738041       -4.3670322249       -1.6065582095
 H         -2.7175405267       -2.2827706931       -1.9284918195
 O         -0.8088171189       -0.4554311908       -1.7253527696
