  62
        -98.94315293
 C         -2.3836423415       -0.4030073795        0.1292388299
 C         -3.4210116858       -0.2506242024        1.0806757479
 C         -4.4629811192        0.7279267431        0.7445695257
 C         -4.3637280463        1.4254767639       -0.4020289176
 C         -5.3847318665        2.4075465772       -0.8972156519
 C         -6.4283057908        1.7200149546       -1.7891573677
 C         -7.0229478343        0.4501709153       -1.1800236435
 H         -7.7665857428        0.0695444624       -1.8836005915
 H         -6.2399882806       -0.3074177565       -1.0996189381
 C         -7.6757253473        0.6508544751        0.1947650123
 H         -8.6344751452        0.1281587974        0.2070588478
 H         -7.8820786316        1.7094961562        0.3561253627
 C         -6.8586062950        0.1094166951        1.3691872930
 H         -7.4980533461        0.1065281469        2.2559417169
 H         -6.5720535705       -0.9262578929        1.1695929597
 C         -5.5923672868        0.9003305004        1.7211043320
 H         -5.8400724970        1.9568273217        1.8416526250
 H         -5.2207133674        0.5228145860        2.6782644592
 H         -5.9529718569        1.4547011012       -2.7363259074
 H         -7.2272641189        2.4336905912       -1.9982664737
 H         -5.8727442918        2.8776398780       -0.0456935004
 H         -4.8707696260        3.1740806333       -1.4794365113
 O         -3.3342491666        1.2766981137       -1.2740270170
 C         -2.3229353278        0.3566710323       -1.0388197726
 O         -1.4516333888        0.3143357724       -1.9277451712
 H          1.0090521651       -1.6752776383       -1.1164655125
 C          1.1084412094       -0.9625707494       -0.3125851951
 C          0.0390386724       -0.7188491601        0.5333502994
 C          0.2023150737        0.2090329724        1.5594080354
 C          1.4001893572        0.8754717059        1.7272833605
 C          2.4638392060        0.6337588666        0.8744680474
 C          2.3132608652       -0.2895720640       -0.1496112427
 N          3.3920612211       -0.5354381592       -1.0186071690
 S          4.8533875160       -0.9984640149       -0.3320701347
 O          5.5383099782       -1.7470916706       -1.3633452048
 O          4.6505482536       -1.6775316763        0.9269643304
 C          5.7136999712        0.5368944812       -0.0640606168
 C          6.1304866603        0.8787272168        1.2074903803
 C          6.8085051669        2.0737248405        1.3918225527
 C          7.0574394585        2.9001893638        0.3068152711
 C          6.6343277356        2.5410083347       -0.9643884207
 C          5.9568360013        1.3474585460       -1.1555273403
 H          5.6153945946        1.0299907934       -2.1267009923
 H          6.8301997973        3.1863219503       -1.8055853754
 H          7.5849075279        3.8296717741        0.4524814014
 H          7.1387818564        2.3545467550        2.3790491976
 H          5.9107054771        0.2063343651        2.0214319494
 H          3.1569010371       -1.1392654500       -1.7932593585
 H          3.4008383490        1.1523729652        0.9960043423
 H          1.5090101049        1.5912087678        2.5279946190
 H         -0.6288446731        0.3977650188        2.2252205909
 C         -1.2897886788       -1.4203217305        0.4020723253
 H         -1.5370135937       -1.8556439964        1.3813809058
 C         -1.3095961403       -2.5216020345       -0.6363692425
 C         -0.6932672702       -3.8519868020       -0.3253715659
 C         -2.1833413909       -3.7174995571       -0.4113483494
 H         -2.6926173684       -4.1509226525       -1.2590427382
 H         -2.7543385564       -3.7510414766        0.5049499255
 H         -0.2487969019       -3.9797421299        0.6502756140
 H         -0.1796942345       -4.3817404102       -1.1137731852
 H         -1.2326689756       -2.1460446681       -1.6506686806
 O         -3.4716507937       -0.9018139051        2.1587445465
