  62
        -98.94393365
 C         -1.6050277822       -1.4249939443       -0.2208140919
 C         -2.7445572864       -0.8820221999        0.4094658662
 C         -3.2619759306        0.3910125108       -0.1268556260
 C         -2.6307480894        0.9561682388       -1.1731901767
 C         -2.9358700278        2.2677208630       -1.8462811580
 C         -2.4391015432        3.4687064427       -1.0266209785
 C         -2.7599943538        3.4035775070        0.4640452749
 H         -2.2943294046        2.5097485315        0.8847827640
 H         -2.2786432120        4.2614024849        0.9423013396
 C         -4.2448509409        3.4389045256        0.8197959332
 H         -4.6827347015        4.3589929046        0.4260338926
 H         -4.3129790280        3.4789427487        1.9100491781
 C         -5.0850569519        2.2548312042        0.3354030384
 H         -5.3236739068        2.3485309643       -0.7205920612
 H         -6.0369399260        2.2914969110        0.8734475572
 C         -4.4790782642        0.8840988958        0.6184661412
 H         -4.2253171970        0.8187424575        1.6829425380
 H         -5.2518515608        0.1218536242        0.4592828726
 H         -1.3506751975        3.5142103876       -1.1193529913
 H         -2.8592222193        4.3803000486       -1.4559742016
 H         -2.4092792396        2.2599645796       -2.8032784747
 H         -3.9991003200        2.3501071944       -2.0510881339
 O         -1.5414329825        0.3870502571       -1.7610317304
 C         -0.9843902991       -0.7835189971       -1.2906934958
 O          0.0355181331       -1.1564533812       -1.9043372538
 O         -3.3079866070       -1.4307957119        1.3977605218
 C         -0.9811470618       -2.6950568589        0.3266299316
 C          0.4564792388       -2.4338917505        0.7046921986
 C          1.4856156399       -3.3386671574        0.4746406296
 C          2.7894065245       -3.0224720396        0.8171523935
 C          3.0990035852       -1.7928710053        1.3691903547
 C          2.0745340825       -0.8860837624        1.6130882500
 C          0.7662133215       -1.2239243435        1.3126275315
 H         -0.0161045690       -0.5065830529        1.5139310223
 N          2.3282009199        0.3996477774        2.1392859478
 S          2.0150250191        1.6821860940        1.1002357594
 O          2.4160376910        2.8658499165        1.8314413717
 O          0.6461964497        1.6374829090        0.6601713399
 C          3.1484469674        1.4131356442       -0.2510796830
 C          4.3733099427        2.0529313798       -0.2136158236
 C          5.3013404666        1.7880441104       -1.2068921273
 C          4.9946403513        0.8810256397       -2.2105568173
 C          3.7631811363        0.2453569124       -2.2309133971
 C          2.8259334020        0.5084944220       -1.2425215063
 H          1.8599046846        0.0267390850       -1.2469914532
 H          3.5155613077       -0.4603936216       -3.0075837389
 H          5.7177760936        0.6688229877       -2.9822381269
 H          6.2582627726        2.2844668225       -1.1937086581
 H          4.5645780562        2.7509401504        0.5856315982
 H          3.2624076259        0.5057856088        2.5123797051
 H          4.1196336939       -1.5329378518        1.6068813386
 H          3.5778149301       -3.7354582306        0.6307486813
 H          1.2673940819       -4.2906092873        0.0187138720
 H         -1.5463092979       -2.9313557589        1.2410568497
 C         -1.1441795692       -3.8352926895       -0.6574669025
 C         -1.2893447882       -5.2453458856       -0.1701085772
 C         -2.4703540243       -4.5268791821       -0.7477915416
 H         -2.8328279614       -4.8225716828       -1.7208334182
 H         -3.2475336362       -4.1922626844       -0.0761355712
 H         -0.8427907583       -6.0396284449       -0.7490746384
 H         -1.2715710107       -5.4104721350        0.8965637729
 H         -0.6054897291       -3.6631544275       -1.5826737198
