  62
        -98.94570576
 C         -2.5615175894        0.1355923065       -0.0761404313
 C         -2.4376278860        1.1994496511        0.8469764691
 C         -1.9068504239        2.4561420604        0.3099846441
 C         -1.5740095914        2.5360144934       -0.9914157158
 C         -1.0023252516        3.7418846355       -1.6861619341
 C          0.5170865191        3.8792182787       -1.5158411200
 C          0.9729042753        4.3664392003       -0.1396137503
 H          0.4057118270        5.2551806493        0.1405345970
 H          2.0198530996        4.6612196197       -0.2342521902
 C          0.8619068778        3.3099102708        0.9682177484
 H          1.7756870910        3.3100718467        1.5683471674
 H          0.7896601727        2.3156991162        0.5200930198
 C         -0.3065871460        3.5111783463        1.9334989915
 H         -0.1501325734        4.4248518494        2.5125744673
 H         -0.3153584554        2.6672175177        2.6287848595
 C         -1.6840884621        3.5914716649        1.2636036076
 H         -1.7959173070        4.5459151253        0.7491815960
 H         -2.4462776124        3.5213773404        2.0442139001
 H          0.8684803614        4.5903595780       -2.2672482302
 H          0.9785966770        2.9103657993       -1.7237120963
 H         -1.4965835820        4.6456159660       -1.3279363400
 H         -1.2220548065        3.6205824941       -2.7489762849
 O         -1.7413991978        1.5012446870       -1.8559810139
 C         -2.1975932784        0.2688347549       -1.4165933455
 O         -2.2530047805       -0.6050515930       -2.3038092507
 O         -2.7547378572        1.1010168243        2.0653922189
 C         -2.9962673875       -1.2281581023        0.4241433871
 C         -1.8936828771       -2.2385176258        0.2071779375
 C         -2.1361892797       -3.5820108415       -0.0488738376
 C         -1.0812753232       -4.4615102022       -0.2280793660
 C          0.2286192435       -4.0234804428       -0.1774965489
 C          0.4820066921       -2.6776859406        0.0715453285
 C         -0.5745497737       -1.8121976024        0.2929120654
 H         -0.3642648043       -0.7767902566        0.5175012718
 N          1.7977222365       -2.1845331193        0.0537147321
 S          2.1339451740       -0.5678141011        0.3465451598
 O          1.8343676939       -0.2142926392        1.7181574415
 O          1.5119249160        0.2286180543       -0.6807731016
 C          3.8996504552       -0.5887907022        0.1053537492
 C          4.7424133349       -0.5894332255        1.2001849919
 C          6.1123756653       -0.6331349242        0.9923558886
 C          6.6132244967       -0.6768969955       -0.2998300985
 C          5.7548642509       -0.6733700806       -1.3896304248
 C          4.3846420642       -0.6290780317       -1.1881865137
 H          3.6782529465       -0.6158037297       -2.0022713745
 H          6.1474007912       -0.7043537365       -2.3932131255
 H          7.6793112095       -0.7110073322       -0.4594359071
 H          6.7818806962       -0.6324196514        1.8373033738
 H          4.3065160881       -0.5460293790        2.1853134097
 H          2.4953460593       -2.8168982261        0.4161119212
 H          1.0481407347       -4.7061235683       -0.3382846048
 H         -1.2845698664       -5.5039473414       -0.4210980290
 H         -3.1512098728       -3.9396939704       -0.1100649395
 H         -3.1436527074       -1.1090432436        1.5092923276
 C         -4.3114598067       -1.6435771378       -0.2034693236
 C         -5.3043822111       -2.4545127072        0.5731638358
 C         -5.5772606901       -1.0093754836        0.2877225525
 H         -6.3407591378       -0.7571008947       -0.4325457201
 H         -5.4905985995       -0.3007091770        1.0986604954
 H         -5.8862879208       -3.1967025774        0.0477534122
 H         -5.0459567158       -2.7275978728        1.5852443460
 H         -4.2209930266       -1.8223152684       -1.2689661928
