  62
        -98.93419948
 C         -2.4172332416       -0.7868157071        0.0847639208
 C         -2.6132285282        0.2829746671        0.9853237118
 C         -2.5263546618        1.6445580741        0.4286923822
 C         -2.2729459080        1.7972777507       -0.8837118353
 C         -2.0842018371        3.0680278065       -1.6739962884
 C         -3.0145155812        4.2486679275       -1.3579358758
 C         -2.3208402358        5.3925277032       -0.6150697418
 H         -1.3145142231        5.5084981609       -1.0230316581
 H         -2.8637841790        6.3187009870       -0.8160812939
 C         -2.2331703591        5.2289385957        0.9011055638
 H         -3.2259254934        5.3580918405        1.3373958084
 H         -1.6011798346        6.0333402637        1.2844041556
 C         -1.6673515956        3.8907939046        1.3794006634
 H         -0.8213230584        3.5880966271        0.7612994368
 H         -1.2871104178        4.0295313074        2.3938970427
 C         -2.7117137518        2.7639376689        1.4165256600
 H         -2.6929504514        2.2757933495        2.3958686483
 H         -3.7163424211        3.1796255010        1.3031686916
 H         -3.8809657842        3.8995555328       -0.7992246647
 H         -3.3799049700        4.6409487968       -2.3084087828
 H         -1.0393959460        3.3733532967       -1.5648217049
 H         -2.2072201050        2.7684120701       -2.7176887622
 O         -2.1055709372        0.7332494315       -1.7206603412
 C         -2.1304574663       -0.5709127102       -1.2626229528
 O         -1.9040172663       -1.4293656940       -2.1369501153
 H         -0.1375914955       -0.9551987680        1.2948716464
 C          0.0848942063       -1.8982731357        0.8091807946
 C         -0.9618383070       -2.7209531536        0.4100258900
 C         -0.6513432707       -3.9236569302       -0.2093449781
 C          0.6677110699       -4.2658308511       -0.4593393526
 C          1.7019481242       -3.4189420023       -0.1038343214
 C          1.4005290464       -2.2308322382        0.5445165704
 N          2.4524344647       -1.3210478399        0.8639133987
 S          2.6627041199       -0.2093906716       -0.4002041177
 O          1.6741409488        0.8466114266       -0.3052424628
 O          2.7146910338       -0.9422319362       -1.6389741957
 C          4.2789905794        0.4387479946       -0.0148612263
 C          5.3785790228       -0.3510680772       -0.2903183661
 C          6.6401648723        0.1193707706        0.0359151091
 C          6.7803021508        1.3645115668        0.6311715268
 C          5.6673085220        2.1454107120        0.9020975524
 C          4.4021338039        1.6793642203        0.5790806558
 H          3.5090762118        2.2541429233        0.7659761848
 H          5.7784256365        3.1135813870        1.3632985172
 H          7.7632095561        1.7294402211        0.8840338986
 H          7.5080916865       -0.4844611805       -0.1744078421
 H          5.2190487232       -1.3071051472       -0.7603757509
 H          2.2176822505       -0.7767284100        1.6857728341
 H          2.7283936341       -3.6542552960       -0.3314092762
 H          0.8896873589       -5.1971157324       -0.9578559894
 H         -1.4445197060       -4.5836307935       -0.5209510775
 C         -2.3656324202       -2.2075434542        0.6216618853
 H         -2.5494283426       -2.1222544787        1.7028388387
 C         -3.4384580685       -3.0776109299        0.0062492803
 C         -3.9487654838       -4.2760794164        0.7480237534
 C         -4.8142264206       -3.0621430864        0.5998332690
 H         -5.6622103785       -3.1087368180       -0.0665626392
 H         -4.9733758406       -2.4361101276        1.4656344662
 H         -4.2065292782       -5.1595750888        0.1840865314
 H         -3.5240261787       -4.4795925535        1.7192567965
 H         -3.3583651990       -3.1346320723       -1.0733023781
 O         -2.8297073483        0.1088469383        2.2171221248
