  62
        -98.94967316
 C         -1.4992705099       -1.0742247460        0.0336362295
 C         -2.5127332784       -0.6417333992        0.9190381288
 C         -3.0338022950        0.7109165179        0.6869648807
 C         -2.5062529684        1.4587402290       -0.2999342803
 C         -2.9664066602        2.8393080108       -0.6671761360
 C         -4.0609995272        2.7964590114       -1.7426636604
 C         -5.1959630080        1.8219338286       -1.4278728610
 H         -5.9239631571        1.8979439039       -2.2382711733
 H         -4.8033575851        0.8027100947       -1.4410324393
 C         -5.8964849168        2.0763506161       -0.0859876881
 H         -6.9761258446        2.0110494155       -0.2361688612
 H         -5.6777308529        3.0870194662        0.2605067134
 C         -5.5393773742        1.0761903714        1.0151009279
 H         -6.2434558910        1.2128626886        1.8401913695
 H         -5.6675731112        0.0575796106        0.6404649763
 C         -4.1253775219        1.1994902265        1.5974584929
 H         -3.9389920874        2.2318682946        1.9018949668
 H         -4.0759384988        0.5669068090        2.4889940480
 H         -4.4651953922        3.8031850313       -1.8632364405
 H         -3.6041744078        2.4973136966       -2.6887421422
 H         -2.1074600885        3.3933607610       -1.0502300444
 H         -3.3361339440        3.3409134517        0.2252241889
 O         -1.5173317840        1.0185374563       -1.1165494834
 C         -0.9837325049       -0.2494916051       -0.9653388181
 O         -0.0754218397       -0.5264923131       -1.7732478083
 O         -2.9562373965       -1.3531462196        1.8628026286
 C         -0.8958278577       -2.4545053475        0.2136288029
 C          0.5981611741       -2.3539628043        0.4013006889
 C          1.4954127654       -3.2652150787       -0.1427133843
 C          2.8577304745       -3.1125259457        0.0501430538
 C          3.3553619087       -2.0392891149        0.7662171361
 C          2.4652815681       -1.1282309391        1.3219746262
 C          1.1015841697       -1.3067469663        1.1624978114
 H          0.4267450010       -0.5880022692        1.6046011994
 N          2.9147358610        0.0038404011        2.0371202984
 S          2.6026565144        1.4906328158        1.3236179168
 O          3.2331148490        2.4632512047        2.1914335033
 O          1.1873042242        1.6485127401        1.1117174072
 C          3.4913913975        1.4174749887       -0.2218058243
 C          4.7680248684        1.9458690950       -0.2671700667
 C          5.5051244490        1.8245073248       -1.4333806594
 C          4.9593401285        1.1684925767       -2.5268936849
 C          3.6792516554        0.6409869311       -2.4629123415
 C          2.9321352228        0.7619909344       -1.3002634599
 H          1.9312309470        0.3628076218       -1.2354889061
 H          3.2469305835        0.1294846840       -3.3079443525
 H          5.5331852320        1.0683090218       -3.4346779292
 H          6.4996451742        2.2375227282       -1.4852462246
 H          5.1475961774        2.4493679149        0.6074412066
 H          3.8950668717       -0.0382028140        2.2830640488
 H          4.4187639985       -1.9031326395        0.8938469881
 H          3.5413102131       -3.8283102675       -0.3799722091
 H          1.1268254116       -4.0941060407       -0.7246684504
 H         -1.3366046254       -2.8497594203        1.1416527271
 C         -1.2933683859       -3.3565378320       -0.9377736948
 C         -1.4889643385       -4.8269085032       -0.7217471416
 C         -2.6735995248       -3.9396477939       -0.9542676025
 H         -3.1948996963       -4.0062487525       -1.8974155046
 H         -3.3157233562       -3.7099876625       -0.1163255649
 H         -1.1991982819       -5.5065840737       -1.5089080235
 H         -1.3347376968       -5.2114240684        0.2750866447
 H         -0.8782654548       -3.0262227087       -1.8836237642
