  62
        -98.94112966
 C         -2.1369364400       -1.0292153227        0.0133568781
 C         -2.7112652116       -0.3074923563        1.0926354001
 C         -3.4521168079        0.9116834373        0.7481012118
 C         -3.5204529664        1.2933290096       -0.5398596274
 C         -4.2769273683        2.4873668543       -1.0438129368
 C         -5.7169557386        2.1153800761       -1.4242326817
 C         -6.4526237672        1.3155642720       -0.3490699717
 H         -5.9732605072        0.3399600879       -0.2409612152
 H         -7.4665809268        1.1374551702       -0.7134411770
 C         -6.5147065643        2.0029635674        1.0220369753
 H         -7.5303225980        1.9135094067        1.4129947757
 H         -6.3019237612        3.0669813001        0.9129771247
 C         -5.5783056222        1.4047558984        2.0735061623
 H         -5.7220140368        0.3224021927        2.1190002082
 H         -5.8564859708        1.8133611354        3.0484735284
 C         -4.0833535101        1.6837232481        1.8723918741
 H         -3.5602733840        1.3694767639        2.7802947743
 H         -3.9227792001        2.7556630039        1.7386036014
 H         -5.6894338912        1.5173147141       -2.3380529063
 H         -6.2653935945        3.0348940392       -1.6363358074
 H         -3.7630809204        2.8715060149       -1.9268658697
 H         -4.2794811444        3.2578288265       -0.2750174957
 O         -2.9353845101        0.5962861523       -1.5449847061
 C         -2.2279605659       -0.5755296092       -1.3023412477
 O         -1.7493512243       -1.0860363245       -2.3337803419
 O         -2.6119898291       -0.6766727552        2.2931705899
 C         -1.3759587352       -2.2944658377        0.3753806640
 C          0.0825544803       -1.9723983962        0.5769555606
 C          0.7278858441       -2.2571264863        1.7737769548
 C          2.0551116786       -1.9087953013        1.9585675682
 C          2.7628931430       -1.2693368638        0.9564965718
 C          2.1251060096       -0.9784665273       -0.2423690065
 C          0.7988592334       -1.3334255335       -0.4269396407
 H          0.3069137936       -1.0984634751       -1.3600598287
 N          2.8360615309       -0.3035579757       -1.2623701875
 S          3.1995620132        1.3024095945       -0.8985163914
 O          2.2050668212        1.8791670431       -0.0206056500
 O          3.3893094068        1.9574679411       -2.1744119815
 C          4.7656479827        1.1925756819       -0.0595551322
 C          4.8662171369        1.5754434430        1.2634957246
 C          6.0954202932        1.4765590174        1.8970113094
 C          7.1949448459        0.9992717795        1.1999094260
 C          7.0771116819        0.6203570892       -0.1293190569
 C          5.8516936985        0.7174544626       -0.7689037441
 H          5.7153846327        0.4401858238       -1.8008246860
 H          7.9344844624        0.2498806315       -0.6676988327
 H          8.1496355292        0.9224963759        1.6958388631
 H          6.1887802627        1.7704174505        2.9301173714
 H          3.9818278173        1.9352162209        1.7647363157
 H          2.3468833812       -0.3285765696       -2.1476227686
 H          3.7956079538       -0.9933405057        1.0942802237
 H          2.5425946038       -2.1341967579        2.8945781937
 H          0.1755445261       -2.7356150152        2.5691500209
 H         -1.7853823358       -2.5934854745        1.3531158676
 C         -1.6185911650       -3.4443942832       -0.5923795836
 C         -0.5563624693       -4.0387044384       -1.4637987441
 C         -1.0667274973       -4.8049773796       -0.2830859213
 H         -1.6909207848       -5.6689857406       -0.4525983199
 H         -0.4148387353       -4.8891435600        0.5734052844
 H         -0.8449657724       -4.3527273426       -2.4554026248
 H          0.4399680791       -3.6288392954       -1.4124250201
 H         -2.6167764266       -3.4103594638       -1.0169976288
