  62
        -98.93375462
 C          2.5869428889        1.2656611007        0.1106724691
 C          2.7439229989        0.2040085803       -0.8092895005
 C          4.1024546590       -0.3544311295       -0.9404923305
 C          5.1042026391        0.1584414609       -0.2017572909
 C          6.5808607491       -0.1757910088       -0.1564396311
 C          7.1090062792       -1.4679660690       -0.7740765206
 C          6.6558643095       -2.7462807088       -0.0695349200
 H          7.1360673997       -2.7914614883        0.9112608399
 H          7.0084893896       -3.6004186890       -0.6517344997
 C          5.1508935596       -2.8820631989        0.1490624103
 H          4.8031372096       -2.0900464387        0.8157108801
 H          4.9714564299       -3.8319491987        0.6601911908
 C          4.3004777594       -2.8707689896       -1.1197617495
 H          3.2777251095       -3.1294652796       -0.8315595392
 H          4.6583454893       -3.6382254198       -1.8088682392
 C          4.2427216290       -1.5272391699       -1.8672855800
 H          3.3464268989       -1.5297652603       -2.4944223899
 H          5.1008543789       -1.4009713401       -2.5229429503
 H          8.1992393392       -1.4223762588       -0.7040770309
 H          6.8633326290       -1.5084113795       -1.8310703406
 H          7.0910353289        0.6687064111       -0.6328841315
 H          6.8594519593       -0.1454131183        0.9017332989
 O          4.9029177891        1.1954830213        0.6647541587
 C          3.6549425390        1.7605791811        0.8549195387
 O          3.6270203690        2.6776602415        1.7010211483
 H         -1.3010975112        1.3050130897       -0.6463240102
 C         -1.0038757909        0.6602202901        0.1660127801
 C          0.2378646291        0.8223073806        0.7581138297
 C          0.5850672395       -0.0179694490        1.8130064000
 C         -0.2775829303       -1.0069470289        2.2435393906
 C         -1.5073802404       -1.1818899894        1.6332432909
 C         -1.8699250407       -0.3419310399        0.5902178706
 N         -3.1093131408       -0.5204120703       -0.0481379090
 S         -4.4540233006       -0.8560880301        0.9158593414
 O         -4.4896711405        0.0424722703        2.0482995810
 O         -4.4560865603       -2.2629299500        1.2300638920
 C         -5.7789846908       -0.4873302808       -0.2171056585
 C         -6.3877805810        0.7523575991       -0.1666787689
 C         -7.3991303212        1.0392790786       -1.0700092189
 C         -7.7795747013        0.0883777681       -2.0050529484
 C         -7.1587895811       -1.1514652718       -2.0432472880
 C         -6.1479932009       -1.4456237413       -1.1421250081
 H         -5.6436296107       -2.3976581612       -1.1288018078
 H         -7.4591753811       -1.8885087521       -2.7703830876
 H         -8.5668330715        0.3142403777       -2.7068619383
 H         -7.8856156914        2.0010539885       -1.0411742692
 H         -6.0653585210        1.4577499795        0.5824891107
 H         -3.3067713311        0.2127938994       -0.7152678493
 H         -2.1892520902       -1.9519880393        1.9564122814
 H          0.0091774800       -1.6521689085        3.0609127008
 H          1.5474401495        0.1140990114        2.2900239798
 C          1.2189306289        1.8861397005        0.3266186791
 H          1.3355920289        2.5968893409        1.1580736688
 C          0.7931045285        2.6492321899       -0.9103058611
 C         -0.1364267116        3.8189746498       -0.7935259714
 C          1.3109677183        4.0402828499       -1.1125944518
 H          1.5787099480        4.3507677196       -2.1113526520
 H          1.9517679784        4.4461845204       -0.3431997821
 H         -0.4836405215        4.0847394502        0.1936582185
 H         -0.8613142218        3.9838465094       -1.5765960514
 H          0.7142569385        2.0129642796       -1.7844177108
 O          1.7977167089       -0.2567728901       -1.4994286901
