  62
        -98.94795902
 C          1.2816129133        1.2279525647        0.4410058719
 C          1.5535780801        0.4161445666       -0.6859638125
 C          2.2119880088       -0.8660627586       -0.4001682299
 C          2.4088420633       -1.2472631551        0.8748393446
 C          2.9978238363       -2.5566079545        1.3251721681
 C          4.5316054702       -2.5680715704        1.3791297178
 C          5.2259942502       -2.5842032675        0.0170429713
 H          6.2807807672       -2.8003785633        0.1975616010
 H          4.8241142451       -3.4005381131       -0.5837658821
 C          5.1167238425       -1.2656776078       -0.7610593343
 H          4.8210794830       -0.4645580056       -0.0795812176
 H          6.0965816066       -0.9976152702       -1.1624508221
 C          4.1409329287       -1.3024425577       -1.9368759147
 H          4.4993759797       -2.0111375088       -2.6865352478
 H          4.1212575409       -0.3097939432       -2.3937986931
 C          2.7007092966       -1.6790439436       -1.5611652277
 H          2.0626014911       -1.4515798440       -2.4185173136
 H          2.6343343188       -2.7441164275       -1.3395814401
 H          4.8670081465       -1.6992742450        1.9504858389
 H          4.8318180651       -3.4629323008        1.9291180594
 H          2.6148439196       -2.7374707505        2.3321846316
 H          2.6485894938       -3.3578032000        0.6730910614
 O          2.0601246214       -0.4688742394        1.9351907776
 C          1.5340448483        0.7988385441        1.7447575043
 O          1.3344261870        1.4377140209        2.7986309792
 H         -1.2968191426        1.1887370845        1.3810629667
 C         -1.6301572288        1.6339866531        0.4540865982
 C         -0.7521361518        2.4220712420       -0.2815218648
 C         -1.2028391904        2.9993929544       -1.4607108032
 C         -2.4983628344        2.7768786787       -1.8953753269
 C         -3.3628639797        1.9775702810       -1.1708356709
 C         -2.9243290339        1.4022304714        0.0174469947
 N         -3.7890901520        0.6071391877        0.7924752675
 S         -3.2978509589       -0.8951366709        1.3355643711
 O         -4.5027400708       -1.4956785525        1.8654520350
 O         -2.1917011301       -0.7661458437        2.2487943718
 C         -2.7960972141       -1.7661134866       -0.1358082997
 C         -1.5008762752       -1.6294865408       -0.5918339373
 C         -1.1390098757       -2.2581219696       -1.7725402373
 C         -2.0711763670       -3.0095155399       -2.4711562298
 C         -3.3679989707       -3.1407577133       -1.9973849416
 C         -3.7380652589       -2.5087963503       -0.8216952865
 H         -4.7319557789       -2.5872566877       -0.4116642405
 H         -4.0893499578       -3.7291242225       -2.5411101091
 H         -1.7814035982       -3.4956454569       -3.3892404844
 H         -0.1317621373       -2.1439010586       -2.1385707360
 H         -0.7947827809       -1.0407172883       -0.0260231301
 H         -4.7287759687        0.5469632722        0.4258668958
 H         -4.3711776776        1.8027666254       -1.5139593865
 H         -2.8367271655        3.2276536153       -2.8157473658
 H         -0.5398148820        3.6178509670       -2.0422469920
 C          0.6459791231        2.5962514588        0.2622458196
 H          0.5596948963        3.0214742563        1.2729827074
 C          1.5273736093        3.4983628257       -0.5743952491
 C          1.4144555161        4.9861252575       -0.4388317908
 C          2.6172104174        4.2733843489        0.1005701856
 H          3.5607186515        4.3899888764       -0.4112468877
 H          2.7132243083        4.1663641911        1.1717434700
 H          0.6944505975        5.3696494607        0.2683226628
 H          1.5349862629        5.5961337411       -1.3211353107
 H          1.7420182661        3.0867033298       -1.5532155197
 O          1.2668308141        0.7354346272       -1.8683095456
