  62
        -98.94520337
 C         -2.2439142449        0.7729497499        0.0219728366
 C         -3.2262844781        0.6368169602       -0.9920490774
 C         -4.0554658593       -0.5706565569       -0.9285454737
 C         -3.8231502549       -1.4884818549        0.0272525676
 C         -4.5572839182       -2.7901810220        0.2019643212
 C         -5.8709847542       -2.6667117722        0.9861442690
 C         -7.0175568462       -1.9919818323        0.2320987898
 H         -7.1483686582       -2.4764184908       -0.7359967922
 H         -7.9271819791       -2.1673946766        0.8098999939
 C         -6.8418168001       -0.4798650290        0.0344798137
 H         -7.7745005397        0.0306439127        0.2843836790
 H         -6.0795382068       -0.1089175034        0.7235094669
 C         -6.4660265138       -0.0656745558       -1.3882362992
 H         -7.2817761558       -0.3155510093       -2.0700319646
 H         -6.3326258058        1.0189149543       -1.4051921739
 C         -5.1765526739       -0.7100306186       -1.9138198132
 H         -5.3485871134       -1.7603816549       -2.1478706524
 H         -4.8808413912       -0.1907091875       -2.8285213650
 H         -5.6739836403       -2.1236670722        1.9134442442
 H         -6.1856262397       -3.6779182280        1.2541866102
 H         -4.7549522592       -3.2327920549       -0.7747968196
 H         -3.8866127514       -3.4523985494        0.7539645153
 O         -2.8477245733       -1.3391180176        0.9618252117
 C         -2.0473436558       -0.2054913754        0.9965661820
 O         -1.2242808273       -0.2013553285        1.9333484328
 H          0.7718115249        1.3399715403        1.5844002324
 C          0.9939502271        1.2459954504        0.5332544844
 C          0.0294663018        1.5719215887       -0.4074036358
 C          0.3312879321        1.4065475237       -1.7564970764
 C          1.5677948985        0.9307724717       -2.1496850634
 C          2.5249905882        0.5973120806       -1.2068012177
 C          2.2267089853        0.7415759191        0.1408232456
 N          3.1854398411        0.3846496167        1.1063765568
 S          3.9165765938       -1.1203351230        0.9556102368
 O          3.0684926201       -2.0667936290        0.2679026129
 O          4.3300579354       -1.4783206066        2.2952968474
 C          5.3684467861       -0.7799255414       -0.0200178836
 C          5.6168663773       -1.5110087641       -1.1650861400
 C          6.7569887321       -1.2339125570       -1.9035867935
 C          7.6244902420       -0.2366262949       -1.4854170486
 C          7.3621925036        0.4868076879       -0.3314351323
 C          6.2249222995        0.2140891848        0.4117067939
 H          5.9858022727        0.7503849709        1.3146644133
 H          8.0390474220        1.2616466091       -0.0094355672
 H          8.5100783563       -0.0220719267       -2.0624366397
 H          6.9619941132       -1.7957075686       -2.8007182702
 H          4.9102562198       -2.2726776124       -1.4546609889
 H          2.8607876085        0.5193486177        2.0537691950
 H          3.4863199606        0.2117072200       -1.5046021961
 H          1.7889397048        0.8123807423       -3.1995364902
 H         -0.4253143543        1.6410699215       -2.4921540602
 C         -1.3583306204        2.0086882494       -0.0095961225
 H         -1.7638696734        2.6335009410       -0.8165766936
 C         -1.4108438920        2.7918305251        1.2850560382
 C         -0.8823525852        4.1940062117        1.3126721400
 C         -2.3574862363        3.9471445222        1.4026237537
 H         -2.8527577949        4.1118683254        2.3478597912
 H         -2.9688573142        4.1813841042        0.5435666743
 H         -0.3626145175        4.5324075028        2.1958919636
 H         -0.4907378663        4.5946632032        0.3901138869
 H         -1.2712799877        2.1786652155        2.1669339846
 O         -3.3994214290        1.4850317710       -1.9065492906
