  62
        -98.93708918
 C          2.2507914307        1.0036064625       -0.5812920963
 C          3.0058827204       -0.0633802113       -1.1295519623
 C          4.3933681322       -0.1770391293       -0.6478827581
 C          4.8599797917        0.7018688440        0.2560731621
 C          6.2307466716        0.6640689470        0.8656426664
 C          6.2413570512       -0.1585638531        2.1616584882
 C          5.5744219276       -1.5277099349        2.0293958406
 H          5.6698112969       -2.0299686296        2.9945150119
 H          4.5068788064       -1.3872235566        1.8448019936
 C          6.1666426943       -2.4183617132        0.9282359653
 H          7.1548629759       -2.0523747485        0.6473371500
 H          6.2959960209       -3.4269954280        1.3262744168
 C          5.2969404048       -2.5419585276       -0.3241800121
 H          4.2794314407       -2.8179416548       -0.0369676932
 H          5.6963419351       -3.3550029413       -0.9361510847
 C          5.2254325871       -1.2939841093       -1.2132465889
 H          6.2348757022       -0.9452582903       -1.4400360679
 H          4.7417280873       -1.5822499677       -2.1510829912
 H          7.2773869868       -0.2851571491        2.4812098721
 H          5.7139773970        0.4059380582        2.9342250441
 H          6.9300381761        0.2397411950        0.1477928600
 H          6.5337852090        1.6876362788        1.0927718862
 O          4.1056330854        1.7129887620        0.7597674160
 C          2.7924163984        1.8817503478        0.3614363232
 O          2.2134086646        2.8457339602        0.9049418710
 H         -1.3302830132        2.1981069685        0.3869388423
 C         -1.2298977495        1.1236926379        0.4675304025
 C         -0.1620894825        0.4865056021       -0.1473459411
 C         -0.0468104399       -0.8943927756       -0.0177003999
 C         -0.9883907139       -1.6161311633        0.6938729730
 C         -2.0700242097       -0.9783482606        1.2778387558
 C         -2.1832327453        0.3995814192        1.1668210062
 N         -3.3351011369        1.0363254538        1.7122239930
 S         -4.5325205962        1.1935250196        0.5302836014
 O         -3.9996045553        1.8014366823       -0.6706601438
 O         -5.6261161134        1.9002118100        1.1582685825
 C         -4.9741496035       -0.4971281063        0.2133148513
 C         -5.8412777147       -1.1323947231        1.0803653004
 C         -6.1484853297       -2.4653805720        0.8590515463
 C         -5.5814495186       -3.1356646190       -0.2148233211
 C         -4.7121718579       -2.4825236918       -1.0755164534
 C         -4.4023731320       -1.1488663525       -0.8615454233
 H         -3.7320630365       -0.6027373926       -1.5063655664
 H         -4.2708924794       -3.0050007905       -1.9090010398
 H         -5.8189071239       -4.1742182806       -0.3835506003
 H         -6.8250031076       -2.9775105880        1.5241821035
 H         -6.2585089275       -0.5697586976        1.8991486247
 H         -3.1314496158        1.9587395712        2.0756375959
 H         -2.8171928597       -1.5315468938        1.8230966945
 H         -0.8863219636       -2.6866228561        0.7831990266
 H          0.7822727041       -1.3941780806       -0.4954732312
 C          0.8101284867        1.2889514686       -0.9702706505
 H          0.6536522113        2.3505394516       -0.7187151323
 C          0.5469145578        1.1484798911       -2.4649147680
 C         -0.2483912854        0.0380183213       -3.0753698844
 C         -0.8260251344        1.4179432871       -3.0092594078
 H         -0.9162663393        1.9881142486       -3.9218704293
 H         -1.6236597170        1.6002465761       -2.3017311977
 H          0.0827769995       -0.3435871697       -4.0289959895
 H         -0.6570045852       -0.7180166677       -2.4241686779
 H          1.3813498088        1.5181703273       -3.0528598391
 O          2.5666608075       -0.8853450567       -1.9719479996
