  62
        -98.93536688
 C         -2.0036586132       -0.3763024778       -0.1117707939
 C         -3.0849416145       -1.1030125200        0.4457083251
 C         -4.3238728151       -0.3560535059        0.7254111815
 C         -4.3647954920        0.9653657128        0.4742913067
 C         -5.4580900134        1.9914225612        0.6888732412
 C         -6.8795371731        1.5565303451        1.0347335655
 C         -7.6240721337        0.8507479416       -0.0988796620
 H         -8.5732558100        0.4791090479        0.2930728309
 H         -7.8502295703        1.5868467945       -0.8745438424
 C         -6.8752623816       -0.3012625964       -0.7642370306
 H         -7.5048558977       -0.6881863654       -1.5701590892
 H         -5.9593544031        0.0749811990       -1.2246325886
 C         -6.5263968134       -1.4703957171        0.1541759732
 H         -6.1315128050       -2.2756749828       -0.4714550949
 H         -7.4320835311       -1.8392567015        0.6395232150
 C         -5.4784324696       -1.1684108727        1.2381275587
 H         -5.0563289267       -2.1202161524        1.5739436419
 H         -5.9321346285       -0.6904876835        2.1029652507
 H         -7.4342418327        2.4675227849        1.2755600479
 H         -6.8770132170        0.9448696862        1.9321539323
 H         -5.0919972479        2.6479412329        1.4860047500
 H         -5.4808151773        2.5996622599       -0.2212643056
 O         -3.2829594551        1.6327024781       -0.0221327217
 C         -2.0866049614        0.9986199705       -0.3293104101
 O         -1.2155877265        1.7671749939       -0.7758078422
 O         -3.0168033095       -2.3327735990        0.7108288613
 C         -0.7222221665       -1.1399491586       -0.3967593152
 C          0.4535606601       -0.4124520436        0.2020595199
 C          0.5967086932       -0.3933324164        1.5866733695
 C          1.6444458337        0.2835456973        2.1811280699
 C          2.5752438569        0.9534428862        1.4068744756
 C          2.4430081273        0.9377270548        0.0249976640
 C          1.3941751419        0.2489663996       -0.5710608116
 H          1.2903501290        0.2659685381       -1.6446481517
 N          3.3883333280        1.6113123835       -0.7643140297
 S          5.0062225082        1.4353246659       -0.3877130674
 O          5.3580739496        2.3155746311        0.6987869218
 O          5.7119573373        1.6556038630       -1.6307184336
 C          5.1738008415       -0.2632439400        0.1345186463
 C          5.5858077616       -0.5543927581        1.4186830957
 C          5.6701035687       -1.8808147354        1.8114214401
 C          5.3383768257       -2.8876197762        0.9186507991
 C          4.9302355498       -2.5792300026       -0.3702540306
 C          4.8458836830       -1.2553210228       -0.7685280554
 H          4.5384718476       -0.9818376359       -1.7650704867
 H          4.6746616604       -3.3646615692       -1.0632852901
 H          5.3987712844       -3.9193110405        1.2273706159
 H          5.9896686822       -2.1235308502        2.8120540378
 H          5.8313408911        0.2590981232        2.0817609946
 H          3.2193951600        1.5526778202       -1.7569881464
 H          3.3887119603        1.5029295240        1.8522013733
 H          1.7373921593        0.2944618777        3.2564894786
 H         -0.1353112767       -0.9088053490        2.1932278998
 H         -0.8484032443       -2.0878429960        0.1515688812
 C         -0.5195839139       -1.5139438214       -1.8572915021
 C         -1.6919455064       -1.8451357841       -2.7302041536
 C         -0.8885560436       -0.6083534587       -2.9926357727
 H         -0.2472746035       -0.5919756558       -3.8624400200
 H         -1.3210235390        0.3506480427       -2.7543572841
 H         -1.6063637444       -2.6724853015       -3.4184321050
 H         -2.6778449025       -1.7315955248       -2.3035034089
 H          0.3685696914       -2.1237402384       -1.9940378905
