  62
        -98.94134837
 C          1.5297161015        1.7854795003       -0.0768109103
 C          2.4293063524        1.2291897326        0.8708546830
 C          3.4242513741        0.2807007146        0.3553279789
 C          3.4411727136        0.0011772870       -0.9603234736
 C          4.3885119015       -0.9555090183       -1.6237685200
 C          3.8101767727       -2.3759096295       -1.6791611769
 C          3.2570033169       -2.8687196251       -0.3423191614
 H          2.3881966644       -2.2637083332       -0.0744660596
 H          2.9093682775       -3.8926714173       -0.4942630027
 C          4.2653485901       -2.8424210919        0.8145603498
 H          4.1925299834       -3.7826890213        1.3650513109
 H          5.2807840755       -2.7772894833        0.4220885146
 C          4.0392635908       -1.7152021387        1.8237591983
 H          2.9942849245       -1.7106624176        2.1432503449
 H          4.6515983099       -1.9204436193        2.7057916397
 C          4.3988065132       -0.3056532070        1.3376384927
 H          5.4093327474       -0.3057899689        0.9233094609
 H          4.3842050252        0.3600925098        2.2054933279
 H          3.0001293310       -2.3904476989       -2.4120850793
 H          4.5933784059       -3.0527602661       -2.0256661130
 H          4.5703448820       -0.6065153555       -2.6418285751
 H          5.3307354731       -0.9572030005       -1.0787241058
 O          2.5613149269        0.5435869507       -1.8379128361
 C          1.5808506691        1.4394235739       -1.4274842235
 O          0.8484937646        1.8302545732       -2.3564203432
 O          2.4091426162        1.5296618093        2.0940274879
 C          0.5342903913        2.8035935637        0.4537349828
 C         -0.8036910483        2.1761618687        0.7478525076
 C         -1.3904280842        2.3006914799        2.0013596399
 C         -2.6221369763        1.7252819060        2.2635250419
 C         -3.2939769256        1.0191179961        1.2821030887
 C         -2.7106473619        0.8797542914        0.0286230033
 C         -1.4730077032        1.4516101689       -0.2298510236
 H         -1.0245985254        1.3461302906       -1.2069504662
 N         -3.3849502278        0.1712540818       -0.9854500132
 S         -3.8835495581       -1.3928579596       -0.6626433453
 O         -4.2013793338       -1.9671014570       -1.9492516010
 O         -4.9526143524       -1.3578305265        0.3028174153
 C         -2.4553844321       -2.1984093185        0.0359796524
 C         -1.5401456792       -2.7693627963       -0.8257771354
 C         -0.3991445252       -3.3536442838       -0.3017227584
 C         -0.1854462584       -3.3422116233        1.0683815939
 C         -1.1113091740       -2.7601147212        1.9199766865
 C         -2.2603618747       -2.1833424832        1.4024337160
 H         -3.0078862453       -1.7329410859        2.0340027852
 H         -0.9416900143       -2.7524661421        2.9846882243
 H          0.7076632881       -3.7914978248        1.4737240539
 H          0.3200255728       -3.8109102033       -0.9621703654
 H         -1.7446603262       -2.7603027903       -1.8846030664
 H         -2.9035509240        0.2028306965       -1.8731563361
 H         -4.2567241070        0.5704459162        1.4661981248
 H         -3.0672999247        1.8326441399        3.2408924723
 H         -0.8699800869        2.8449504765        2.7756495558
 H          0.9629993583        3.1260724844        1.4156823733
 C          0.4296529359        4.0421943551       -0.4277018011
 C         -0.7920488572        4.4182299924       -1.2061464549
 C         -0.4127666578        5.2035537815        0.0111319161
 H         -0.0250852102        6.2032339229       -0.1130578028
 H         -1.0169465017        5.0693344645        0.8959012980
 H         -0.6453937078        4.8604981887       -2.1799185579
 H         -1.6582682464        3.7781789246       -1.1493826941
 H          1.3805206217        4.2833891617       -0.8929949740
