  62
        -98.94384759
 C         -1.2990777098       -1.4235049594        0.6138054392
 C         -2.0880243896       -1.0169331186       -0.4909233306
 C         -3.1122391694        0.0003139715       -0.2083552201
 C         -3.2363713193        0.4921454208        1.0365880902
 C         -4.2040922791        1.5630995309        1.4467171007
 C         -3.5687800687        2.9567849708        1.3486639616
 C         -2.8649946685        3.2312763913        0.0188943518
 H         -2.5051357582        4.2625908812        0.0520566224
 H         -1.9767118786        2.5984783611       -0.0604972385
 C         -3.7487659984        3.0403640223       -1.2217909184
 H         -4.8009030284        3.0726974424       -0.9349445985
 H         -3.5717621581        3.8750813926       -1.9034710479
 C         -3.4755522987        1.7583882127       -2.0109282791
 H         -2.4017188987        1.6697062325       -2.1981398391
 H         -3.9720848286        1.8446230734       -2.9813758491
 C         -3.9613305291        0.4568086924       -1.3604543499
 H         -5.0049694191        0.5625413126       -1.0572793799
 H         -3.8983339793       -0.3343131271       -2.1134041204
 H         -4.3500867185        3.7027851909        1.5080608319
 H         -2.8308646687        3.0603691501        2.1478032817
 H         -5.0870491790        1.5096775915        0.8127703906
 H         -4.4991693592        1.3819048504        2.4819740906
 O         -2.4507020395        0.0920622000        2.0687073100
 C         -1.4395179098       -0.8344797401        1.8720785096
 O         -0.7391308299       -1.0477864009        2.8831342095
 H          0.6052156807        0.0671061904       -0.1004548997
 C          1.0236103505       -0.6216764893       -0.8175337101
 C          0.7090649501       -1.9707343492       -0.7233311309
 C          1.2192937300       -2.8355803788       -1.6818538913
 C          2.0135527102       -2.3480617084       -2.7064538410
 C          2.3283429006       -1.0040668685       -2.7913161502
 C          1.8184471408       -0.1298108989       -1.8374433997
 N          2.0898047611        1.2449899011       -1.8840952689
 S          2.1462468913        2.1396860702       -0.4764195584
 O          0.8205393113        2.3437127803        0.0516618816
 O          2.8668985316        3.3384062603       -0.8495473076
 C          3.1401452409        1.1700953293        0.6448167812
 C          2.5857173006        0.5959277588        1.7699737708
 C          3.3860673103       -0.1882738219        2.5864428604
 C          4.7206769903       -0.3820224021        2.2676187804
 C          5.2671160806        0.2107159484        1.1389791508
 C          4.4710194009        0.9915314391        0.3180651612
 H          4.8617347411        1.4770491795       -0.5613106685
 H          6.3070265406        0.0633223283        0.8963537108
 H          5.3370427601       -0.9963289326        2.9047337401
 H          2.9517097801       -0.6467023923        3.4608511201
 H          1.5428172707        0.7565788590        1.9974552808
 H          2.7820619713        1.5329824613       -2.5586581087
 H          2.9456806608       -0.6300246382       -3.5933110599
 H          2.3962312001       -3.0285249081       -3.4519342013
 H          0.9799375997       -3.8854314388       -1.6428156920
 C         -0.1436825101       -2.3961944697        0.4486454288
 H          0.4669014999       -2.2571769904        1.3574179689
 C         -0.5384759705       -3.8655264695        0.4191979179
 C         -1.8652989707       -4.3257660195        0.9434904075
 C         -1.5734192905       -4.3986862087       -0.5237199625
 H         -1.4117793408       -5.3716645485       -0.9645459931
 H         -2.0553648703       -3.6919306882       -1.1798653721
 H         -2.5565673705       -3.5704767995        1.2895023579
 H         -1.9012355110       -5.2435575598        1.5114070170
 H          0.3051474593       -4.5152799099        0.6306440076
 O         -1.9527520596       -1.4681859679       -1.6573282408
