  62
        -98.93203143
 C         -1.9213348196       -1.1106553257       -0.2328705972
 C         -2.2912538135        0.1740644299       -0.6978377860
 C         -3.4808149461        0.7794141753       -0.0580058832
 C         -4.1197388241        0.1158584222        0.9190212928
 C         -5.3601110927        0.5355193201        1.6587559962
 C         -6.6165012556       -0.0470153505        0.9897516352
 C         -7.1994665301        0.8045558251       -0.1373204341
 H         -7.9944213648        0.2214796159       -0.6078107601
 H         -7.6579192752        1.6992074372        0.2891934884
 C         -6.2012700953        1.2342690685       -1.2155531587
 H         -5.5532750136        0.3947388427       -1.4737310681
 H         -6.7673610351        1.4932319050       -2.1124129573
 C         -5.3485039510        2.4427535220       -0.8012373527
 H         -5.7794563351        2.8935156026        0.0926320679
 H         -5.3946008728        3.2032766274       -1.5836234653
 C         -3.8605230733        2.1452203491       -0.5625128468
 H         -3.3117670292        2.2545271368       -1.5036630430
 H         -3.4503130895        2.8960607821        0.1219250912
 H         -6.3623230575       -1.0393641642        0.6086527068
 H         -7.3896776152       -0.1770102085        1.7496258380
 H         -5.2767244723        0.1186117258        2.6646367776
 H         -5.4180772767        1.6174192652        1.7318903713
 O         -3.7227008689       -1.1154343457        1.3443908847
 C         -2.6290453603       -1.7492370398        0.7895956702
 O         -2.3875524226       -2.8725935407        1.2754857523
 H          0.3263880478        0.4892335177        0.1014925738
 C          0.8626182944       -0.3634021090        0.4901638722
 C          0.4683412010       -1.6519820757        0.1537516895
 C          1.1751947337       -2.7269431137        0.6822535028
 C          2.2470530003       -2.5221787063        1.5320359822
 C          2.6477214091       -1.2375305905        1.8506649366
 C          1.9519804303       -0.1557957444        1.3238335521
 N          2.3537712014        1.1709572981        1.6043454109
 S          3.0977312967        1.9686700616        0.3302865953
 O          3.5458900208        3.2318914448        0.8727667118
 O          2.2057961191        2.0208031590       -0.7959933493
 C          4.5084598400        0.9414272349       -0.0474054727
 C          5.7189830460        1.2165573756        0.5583628451
 C          6.7933580070        0.3734704257        0.3239093439
 C          6.6359354716       -0.7314032305       -0.4992464605
 C          5.4132536723       -0.9960640685       -1.0970878757
 C          4.3359227233       -0.1541613494       -0.8699130174
 H          3.3725528050       -0.3250448260       -1.3226939931
 H          5.2906411015       -1.8543677810       -1.7377774870
 H          7.4710968030       -1.3899608734       -0.6780512202
 H          7.7461998019        0.5787662078        0.7846429893
 H          5.7955068027        2.0893513947        1.1866844974
 H          2.9473231472        1.2436105288        2.4201493281
 H          3.4872069486       -1.0690371078        2.5086881040
 H          2.7773762029       -3.3670477660        1.9432334158
 H          0.8613977650       -3.7309031977        0.4376061682
 C         -0.7198636611       -1.8910705093       -0.7434397479
 H         -0.9981069431       -2.9518797753       -0.6293485570
 C         -0.4069892358       -1.6798930055       -2.2165870386
 C          0.6312232362       -0.7323076268       -2.7271459155
 C          0.8768453028       -2.2081614073       -2.7883857657
 H          0.8527236754       -2.6951976040       -3.7514492256
 H          1.5907203697       -2.6287164958       -2.0956542675
 H          0.4079931073       -0.2025236072       -3.6410826192
 H          1.1737598351       -0.1255008460       -2.0191398512
 H         -1.2965585884       -1.7853776174       -2.8299042159
 O         -1.6902287430        0.8033172505       -1.6050103546
