  62
        -98.94263778
 C         -1.1069545817       -1.3521313944       -0.0658905802
 C         -1.9121485719       -0.8254005257        0.9690269365
 C         -2.6127446730        0.4386993141        0.6827365920
 C         -2.4691259625        1.0146730554       -0.5253636285
 C         -3.0087937412        2.3182199229       -1.0767871753
 C         -4.1643693492        3.0399202008       -0.3881644406
 C         -5.4981669540        2.2952758493       -0.4211289042
 H         -6.2197220212        2.8648248436        0.1686726021
 H         -5.8578267483        2.2692645747       -1.4527289063
 C         -5.4631458799        0.8578285147        0.0919500391
 H         -4.8354495040        0.2490351907       -0.5618480297
 H         -6.4779314417        0.4558108628        0.0292946493
 C         -4.9861492835        0.6890163109        1.5335167676
 H         -5.1736203594       -0.3486849835        1.8224282715
 H         -5.5730450767        1.3303614668        2.1938637062
 C         -3.4922665593        0.9710874016        1.7763379318
 H         -3.3064089275        2.0314629677        1.9342221851
 H         -3.1929361760        0.4514765905        2.6916544966
 H         -3.8956863279        3.2921040945        0.6336614132
 H         -4.3009497865        3.9850569483       -0.9208665417
 H         -2.1527817688        3.0019748067       -1.1152296075
 H         -3.2873766268        2.1086409263       -2.1143721359
 O         -1.6862125751        0.4616846184       -1.4976349008
 C         -0.9742521294       -0.7117322030       -1.2953735983
 O         -0.2839104763       -1.0653584698       -2.2680936797
 O         -2.0354390769       -1.3824809735        2.0941081001
 C         -0.3306555079       -2.6327548253        0.1762850598
 C          1.1505192598       -2.3632793313        0.0678418683
 C          2.0124087429       -3.1246334954       -0.7104411159
 C          3.3629556896       -2.8249928528       -0.7567643349
 C          3.8793516500       -1.7668668996       -0.0329311612
 C          3.0272884964       -1.0041137112        0.7588231321
 C          1.6763456535       -1.3079074292        0.8049314471
 H          1.0239080768       -0.7133280653        1.4283825675
 N          3.5319010245        0.0569753558        1.5320862873
 S          2.7570938854        1.5361920019        1.5448313421
 O          3.7232196368        2.4372748860        2.1357171948
 O          1.4874678409        1.4356576355        2.2177520080
 C          2.5251031816        1.9478118516       -0.1725148533
 C          3.6176613312        2.3730802037       -0.9033600693
 C          3.4556258860        2.6432317938       -2.2519615569
 C          2.2127616294        2.4768262096       -2.8448646014
 C          1.1253438647        2.0538907855       -2.0969490306
 C          1.2824559411        1.7853606602       -0.7466968722
 H          0.4620964661        1.4512956105       -0.1300392838
 H          0.1601935442        1.9082419171       -2.5557486959
 H          2.0869701233        2.6784094544       -3.8969040100
 H          4.2963600817        2.9778592330       -2.8380218952
 H          4.5634247394        2.5008750476       -0.4021547608
 H          4.5306320376        0.1852013223        1.4514936205
 H          4.9325456614       -1.5339583709       -0.0703365117
 H          4.0211968873       -3.4219458461       -1.3692767059
 H          1.6273755355       -3.9514730446       -1.2836229654
 H         -0.5468338017       -2.9118951229        1.2186665664
 C         -0.8220157484       -3.7369517484       -0.7358602700
 C         -0.6943650998       -5.1709872951       -0.3194594959
 C         -2.0405941471       -4.5135264394       -0.3396501654
 H         -2.7441319894       -4.7971256124       -1.1080080448
 H         -2.5036457030       -4.2622414636        0.6036658812
 H         -0.4760438221       -5.9105822298       -1.0748834270
 H         -0.2448149904       -5.3741130373        0.6407617596
 H         -0.7047043668       -3.4936852430       -1.7857497948
