  62
        -98.93820158
 C         -2.6779283338       -1.2131063983        0.2293378720
 C         -3.0516220494       -0.2625154919        1.2141155764
 C         -4.2271440081        0.5636249011        0.9154038583
 C         -4.8846398819        0.3705053004       -0.2423117609
 C         -6.0637848727        1.1754591473       -0.7045566591
 C         -5.6175102315        2.3808596500       -1.5439720009
 C         -4.5053772490        3.2068522013       -0.8974175577
 H         -3.5966298039        2.6026868592       -0.8445288414
 H         -4.2944626210        4.0459428825       -1.5639042786
 C         -4.8416472289        3.7384729351        0.5028995081
 H         -4.5389383698        4.7860359413        0.5617703329
 H         -5.9197667639        3.7035216945        0.6636645441
 C         -4.1355806079        3.0063010894        1.6456459847
 H         -4.2682753672        3.5927108436        2.5588236329
 H         -3.0629008537        2.9561109939        1.4418200472
 C         -4.6366346413        1.5862352279        1.9375029256
 H         -4.1876133532        1.2624871065        2.8811185001
 H         -5.7217546417        1.5962868358        2.0591765477
 H         -6.4867305491        3.0157472463       -1.7251366049
 H         -5.2559859841        2.0159488785       -2.5080826651
 H         -6.6294501193        1.5118038763        0.1622262316
 H         -6.7001927394        0.5336277969       -1.3160469968
 O         -4.5121988480       -0.5612123550       -1.1535157474
 C         -3.3937680567       -1.3650638078       -0.9591647201
 O         -3.1738212158       -2.1467764918       -1.9011397435
 O         -2.4285212993       -0.1191541280        2.3011542537
 C         -1.4519222886       -2.0544490601        0.5369801848
 C         -0.2103231292       -1.3914563576       -0.0029204543
 C         -0.1047144836       -1.0382015861       -1.3449851599
 C          1.0424073944       -0.4285023484       -1.8189555152
 C          2.0992416758       -0.1490699657       -0.9694093481
 C          2.0023706033       -0.4916691147        0.3721619222
 C          0.8522863063       -1.1136772499        0.8437630965
 H          0.7755222706       -1.3691530645        1.8921771442
 N          3.0562855566       -0.1862450999        1.2456921971
 S          4.6333987229       -0.5201625058        0.7852758764
 O          4.6925204088       -1.6516116902       -0.1102736725
 O          5.3665980751       -0.6425389303        2.0259216619
 C          5.1589984703        0.9577254839       -0.0568233381
 C          5.0109041015        2.1675582126        0.5927648478
 C          5.4283345976        3.3246225175       -0.0451684298
 C          5.9871705868        3.2527247774       -1.3126247143
 C          6.1325157945        2.0300275596       -1.9497533128
 C          5.7155796987        0.8688195227       -1.3176375261
 H          5.8035640140       -0.1028499832       -1.7772738319
 H          6.5673921594        1.9760833766       -2.9348854570
 H          6.3110995019        4.1551735378       -1.8066440335
 H          5.3163353569        4.2774074317        0.4468499880
 H          4.5746229153        2.1819925600        1.5776518980
 H          2.8879235658       -0.4458165115        2.2064690420
 H          2.9926003539        0.3287851966       -1.3367755072
 H          1.1137964457       -0.1630965607       -2.8629403590
 H         -0.9302211193       -1.2497000109       -2.0080890634
 H         -1.3783267842       -2.0409609560        1.6363289502
 C         -1.5905140918       -3.5104733442        0.1160500833
 C         -0.7895830001       -4.1472491045       -0.9755990668
 C         -0.5055928841       -4.4906257881        0.4539775603
 H         -0.7825212126       -5.4669666130        0.8217586206
 H          0.4021351699       -4.0965614898        0.8873518376
 H         -1.2874621696       -4.8744977042       -1.5984262674
 H         -0.0690299932       -3.5443567187       -1.5050269837
 H         -2.6109453808       -3.8640001497        0.2236414778
