  62
        -98.93898274
 C         -1.9254420421       -1.3828542711        0.2851253233
 C         -2.5621967667       -0.7262859540       -0.7932699256
 C         -3.7294754905        0.1089571586       -0.4547895602
 C         -4.1206164045        0.2148393305        0.8289736214
 C         -5.2886875582        0.9476995882        1.4553583925
 C         -6.0320817317        2.0362142484        0.6851340961
 C         -5.2071567577        3.2866558842        0.3829511117
 H         -5.8092892767        3.9490345050       -0.2427497000
 H         -5.0072210810        3.8082113118        1.3224957409
 C         -3.8648542564        3.0425745293       -0.3028386566
 H         -3.2096150667        2.4771054169        0.3634011417
 H         -3.3910146284        4.0144460399       -0.4669087613
 C         -3.9373581984        2.3280476240       -1.6513314828
 H         -4.6199858236        2.8633929555       -2.3140233384
 H         -2.9391839412        2.3670688102       -2.0965922031
 C         -4.3611677125        0.8493738279       -1.5975873826
 H         -5.4434023977        0.7471174348       -1.5725810283
 H         -4.0053554697        0.3644216333       -2.5112447022
 H         -6.8733954319        2.3409104706        1.3135782889
 H         -6.4537461872        1.6304511518       -0.2296352306
 H         -6.0095770957        0.1727185649        1.7386841150
 H         -4.9068092563        1.3693232571        2.3906051371
 O         -3.4675757561       -0.4360909741        1.8368561198
 C         -2.3582194758       -1.2288774527        1.5995869529
 O         -1.8498915677       -1.7247429228        2.6262607938
 H          0.1057265175        0.1768992080        0.7195298500
 C          0.6712246806       -0.1927245431       -0.1276173229
 C          0.3786633114       -1.4525573493       -0.6364237193
 C          1.1257181081       -1.9210156901       -1.7089140929
 C          2.1114083887       -1.1310154966       -2.2763002646
 C          2.3802242517        0.1324176158       -1.7846992684
 C          1.6537820738        0.6018485086       -0.6969966284
 N          1.9331684408        1.8762780998       -0.1751242867
 S          3.5388603782        2.2970339809        0.0386211257
 O          3.5394127775        3.2500204301        1.1265380069
 O          4.0868596387        2.7686221516       -1.2087181308
 C          4.3599550247        0.7890670482        0.5244488116
 C          5.3758465986        0.2748493352       -0.2551055817
 C          5.9781454850       -0.9132835613        0.1269111480
 C          5.5530329141       -1.5652757515        1.2737557225
 C          4.5331054898       -1.0340961363        2.0486657865
 C          3.9291773039        0.1544986348        1.6727708548
 H          3.1363404293        0.5941272631        2.2570815800
 H          4.2024496991       -1.5418887927        2.9406291221
 H          6.0182430140       -2.4926786143        1.5681843444
 H          6.7726644867       -1.3276838622       -0.4723440703
 H          5.6724144324        0.8128787684       -1.1406573480
 H          1.3767993043        2.1235009711        0.6294814007
 H          3.1296588056        0.7673157858       -2.2286938677
 H          2.6750009333       -1.5032806927       -3.1179022686
 H          0.9295317340       -2.9017048260       -2.1094038122
 C         -0.7114768751       -2.2569375042        0.0304923150
 H         -0.3478061821       -2.5668500418        1.0213759082
 C         -1.1140280054       -3.4922960809       -0.7481048628
 C         -0.3719269365       -4.7804014213       -0.5607069619
 C         -1.7583963981       -4.6279150757       -0.0133088497
 H         -2.5665994792       -5.1600115873       -0.4922432180
 H         -1.8811014037       -4.5198850047        1.0548896017
 H          0.4494017595       -4.7875515298        0.1396068266
 H         -0.2297348406       -5.4231482179       -1.4163240274
 H         -1.4943001977       -3.2552650820       -1.7349986462
 O         -2.1809720270       -0.8320947337       -1.9874731765
