  62
        -98.93564513
 C         -1.8232561799       -1.4528174164        0.3906288909
 C         -1.5955580103       -0.2238475229       -0.2727938065
 C         -2.4516420266        0.9105393610        0.1335734185
 C         -3.3705430340        0.7409210071        1.1012451545
 C         -4.3474238315        1.7096677754        1.7349633883
 C         -4.6215571678        3.0711786482        1.1015957145
 C         -5.3597217197        3.0167706707       -0.2358194454
 H         -6.3850350344        2.6855723784       -0.0523051816
 H         -5.4059116828        4.0296064874       -0.6418542637
 C         -4.7562901774        2.0866389028       -1.2852373439
 H         -5.3863043148        2.1366647358       -2.1773823713
 H         -4.7918802605        1.0562971229       -0.9252430268
 C         -3.3263528680        2.4175884388       -1.7070297670
 H         -3.2721937572        3.4572518936       -2.0355833961
 H         -3.0812382957        1.7824589293       -2.5624032647
 C         -2.2494126790        2.1856437827       -0.6334398190
 H         -1.2856256825        2.0824284268       -1.1401041455
 H         -2.1743006861        3.0343417667        0.0425163496
 H         -3.6984502344        3.6355853771        1.0067853289
 H         -5.2545850978        3.6188131025        1.8052176991
 H         -3.9850554373        1.8695678490        2.7568128114
 H         -5.2910085110        1.1621907074        1.8279767752
 O         -3.5213936776       -0.4551469055        1.7445185378
 C         -2.7618155931       -1.5647144774        1.4170484565
 O         -3.0049815890       -2.5729223234        2.1101972473
 O         -0.7165487899       -0.0569727707       -1.1549218106
 C         -1.0117829567       -2.6963843901        0.0735501243
 C          0.4568606139       -2.3596159403       -0.0387284173
 C          1.2770273350       -2.8195936340       -1.0607869211
 C          2.6229608503       -2.4951473264       -1.0823525808
 C          3.1771979093       -1.6927241780       -0.1031708099
 C          2.3596310071       -1.2057090843        0.9094163700
 C          1.0204367639       -1.5590628333        0.9475756827
 H          0.3918763685       -1.1867818509        1.7480125997
 N          2.8961773081       -0.3514185976        1.8857784006
 S          4.0075798405        0.8063845341        1.4139279371
 O          5.3268883389        0.2220611444        1.4025405780
 O          3.8203226373        1.9023647090        2.3405774051
 C          3.5702383417        1.3091695472       -0.2424355630
 C          2.2747781182        1.7059256219       -0.5061893290
 C          1.9441617099        2.0943528458       -1.7938160909
 C          2.9084828178        2.0853450228       -2.7892935397
 C          4.2077393815        1.6938600407       -2.5064925970
 C          4.5435386613        1.2998383180       -1.2216975587
 H          5.5383314862        0.9786082104       -0.9580975220
 H          4.9567332092        1.6889655996       -3.2819257793
 H          2.6423519516        2.3838649406       -3.7909906754
 H          0.9299633841        2.3840777466       -2.0158519519
 H          1.5352161095        1.6973495286        0.2788391093
 H          2.2116426475        0.0335779041        2.5191643152
 H          4.2242129840       -1.4359599100       -0.1046243953
 H          3.2486813593       -2.8674165046       -1.8788803812
 H          0.8637905502       -3.4234317332       -1.8511865207
 H         -1.1330265946       -3.3440769023        0.9585098108
 C         -1.5382799378       -3.4879229482       -1.1164152898
 C         -2.9445079701       -3.3175845932       -1.6070788091
 C         -1.7970918970       -2.8392891286       -2.4420710178
 H         -1.5543979232       -3.3884784494       -3.3399561946
 H         -1.6201841883       -1.7782002019       -2.5146490402
 H         -3.4840279487       -4.1980283196       -1.9232672092
 H         -3.5649674323       -2.5822705148       -1.1151574084
 H         -1.1510332554       -4.5018160799       -1.1349988476
