  62
        -98.93341284
 C         -2.2620359836       -1.0391844434        0.4172080989
 C         -2.3576842588        0.0730039551       -0.4540812832
 C         -3.2701693457        1.1537954558       -0.0323070212
 C         -3.8974943060        1.0710268761        1.1521866659
 C         -4.8333102107        2.0652919235        1.7931039472
 C         -5.8912996403        2.7224697756        0.8958916235
 C         -6.4238930847        1.8352995252       -0.2388519148
 H         -6.1031235294        0.8028579927       -0.0893996497
 H         -7.5151460045        1.8433629364       -0.2125582102
 C         -5.9842411105        2.3109532969       -1.6257257380
 H         -6.6646178876        1.8931920204       -2.3716647780
 H         -6.0796373537        3.3980692464       -1.6691496107
 C         -4.5659469600        1.9163049841       -2.0357752341
 H         -4.3399217448        2.4099284462       -2.9838922514
 H         -4.5208090074        0.8390238951       -2.2177491777
 C         -3.4626362401        2.2653948662       -1.0233548818
 H         -2.5185513400        2.3480239275       -1.5687621574
 H         -3.6643538310        3.2138621100       -0.5317147088
 H         -6.7168493901        3.0157530219        1.5466273678
 H         -5.4880853587        3.6397234863        0.4690670098
 H         -5.3266325738        1.5129219018        2.5966497023
 H         -4.2291477081        2.8461056557        2.2645123573
 O         -3.7154930121        0.0143733689        1.9961759269
 C         -2.9065006180       -1.0554513772        1.6549911081
 O         -2.8333942086       -1.9405491642        2.5321901486
 O         -1.7171956616        0.1781805728       -1.5299381898
 C         -1.3823685626       -2.2340401776        0.0922082033
 C         -0.0271066380       -1.7639029459       -0.3779255052
 C          0.5203761237       -2.0859353584       -1.6119318638
 C          1.7750501487       -1.6187023663       -1.9631853856
 C          2.5080828765       -0.8271250572       -1.0989297319
 C          1.9732759696       -0.5045746554        0.1416289832
 C          0.7196592728       -0.9793747538        0.4933601174
 H          0.3006677034       -0.7267339710        1.4610764867
 N          2.7060740869        0.3100030038        1.0234846367
 S          4.2974579038       -0.1099488495        1.3575997770
 O          4.5102548626       -1.5311999703        1.2105706245
 O          4.5697138170        0.4497095095        2.6638939146
 C          5.2419409417        0.7802257506        0.1387931445
 C          6.0667738608        0.0952270769       -0.7317131010
 C          6.7958546574        0.8122353487       -1.6677967171
 C          6.6885433386        2.1936780509       -1.7156144774
 C          5.8583045634        2.8669031275       -0.8317067834
 C          5.1274889475        2.1561749331        0.1067309835
 H          4.4759857971        2.6410538975        0.8145147135
 H          5.7779124790        3.9413269075       -0.8709253045
 H          7.2558774343        2.7495296608       -2.4453119828
 H          7.4428051770        0.2910934280       -2.3550068271
 H          6.1162448409       -0.9796290142       -0.6593923384
 H          2.2121274506        0.5321670972        1.8755002431
 H          3.4819108993       -0.4558718496       -1.3732781954
 H          2.1851512692       -1.8692317439       -2.9296648222
 H         -0.0439958114       -2.6830197133       -2.3089276994
 H         -1.2367199564       -2.7479648573        1.0575434237
 C         -2.0287824017       -3.2477111149       -0.8403829760
 C         -3.5179699432       -3.4149596560       -0.8811806359
 C         -2.7955700248       -2.8435509747       -2.0621300997
 H         -2.7040943003       -3.4543078088       -2.9484433591
 H         -2.8889463188       -1.7891729273       -2.2666470387
 H         -3.9199172710       -4.4144203488       -0.9541469541
 H         -4.1123922765       -2.7505164307       -0.2703547879
 H         -1.4434276194       -4.1595276935       -0.9108569258
