  62
        -98.93334063
 C          2.5501277743        1.3398976757       -0.3573534238
 C          2.1729508953        0.0920442686       -0.9087128689
 C          3.1725205900       -0.9851390829       -0.8112761871
 C          4.3547296326       -0.7363394472       -0.2198630896
 C          5.4379436762       -1.7470934134        0.0286022470
 C          5.0663102312       -2.6286453252        1.2381270243
 C          4.8243924946       -4.0989608153        0.8961897787
 H          5.7867027516       -4.5874839546        0.7294491335
 H          4.3644162333       -4.5658205908        1.7698111465
 C          3.9462227402       -4.3637693616       -0.3304453891
 H          4.5384360853       -4.2429485611       -1.2387072671
 H          3.6508199458       -5.4142735054       -0.2884124266
 C          2.6822511528       -3.5024045406       -0.4513022058
 H          2.3652329897       -3.1398863891        0.5272862404
 H          1.8755531647       -4.1345390859       -0.8284719170
 C          2.8082140179       -2.3112525613       -1.4196209308
 H          3.5210388493       -2.5583675454       -2.2112387163
 H          1.8357211512       -2.1433426886       -1.8917451775
 H          5.8609638695       -2.5774470489        1.9839835789
 H          4.1713289512       -2.2108277586        1.7047147371
 H          5.5836234243       -2.3572371544       -0.8599042271
 H          6.3565100415       -1.1953773720        0.2291560115
 O          4.6768760179        0.4748416836        0.3042786811
 C          3.7875425456        1.5336502051        0.2597598910
 O          4.2086601280        2.5807274890        0.7906528110
 H         -0.9292608081        1.6549144919       -1.0251057904
 C         -0.7816669029        1.7449545626        0.0391988612
 C          0.4327318323        2.1951326260        0.5298736621
 C          0.6081130912        2.2731216629        1.9090824800
 C         -0.4096368257        1.9115465751        2.7710695429
 C         -1.6210007207        1.4576157935        2.2777334466
 C         -1.8009426190        1.3661616011        0.9047991417
 N         -3.0280372149        0.9070753821        0.3868975209
 S         -3.7062195528       -0.4568511659        1.1189214148
 O         -4.3859625082       -0.0359074016        2.3194106760
 O         -2.7081830391       -1.4889921283        1.2912710170
 C         -4.9013920077       -0.9358640018       -0.1125456460
 C         -6.1617361402       -0.3703646199       -0.0780724852
 C         -7.0790061045       -0.7201049637       -1.0562383274
 C         -6.7220959890       -1.6225942627       -2.0470770933
 C         -5.4531068946       -2.1819290630       -2.0682519767
 C         -4.5303824101       -1.8357456219       -1.0936502611
 H         -3.5350440527       -2.2509251507       -1.0677482301
 H         -5.1784590643       -2.8844280832       -2.8387104240
 H         -7.4374194137       -1.8941077776       -2.8072902510
 H         -8.0671059011       -0.2892971427       -1.0427736474
 H         -6.3950457824        0.3194817471        0.7159405846
 H         -2.9743915989        0.7726731523       -0.6144074409
 H         -2.4177467682        1.1557464139        2.9382992082
 H         -0.2596825987        1.9772949190        3.8385547969
 H          1.5618886204        2.6073660243        2.2948502361
 C          1.5976062486        2.5256968288       -0.3712285816
 H          2.1503048436        3.3597877623        0.0811574233
 C          1.2023534503        2.9112606234       -1.7809032228
 C          0.5750732529        4.2494275237       -2.0276165309
 C          1.9756669227        3.9815886316       -2.4880736945
 H          2.1593465105        3.8694827952       -3.5461022084
 H          2.7898570909        4.4464023371       -1.9513860817
 H          0.4367363832        4.8978627178       -1.1757328125
 H         -0.2040525341        4.3260372740       -2.7704636885
 H          0.8652751811        2.0722495778       -2.3765702614
 O          1.0643805238       -0.1212877391       -1.4673426491
