  62
        -98.94581553
 C         -1.7447910201       -1.4357126428       -0.4571174096
 C         -1.4986681357       -0.1840612733       -1.0727798096
 C         -2.6209252319        0.7650831957       -1.0634419720
 C         -3.8039650686        0.4104406694       -0.5326268148
 C         -5.0512487579        1.2515837792       -0.4950154065
 C         -5.1153374765        2.2309065539        0.6844745376
 C         -4.1645128856        3.4246737881        0.5887483295
 H         -4.2966377024        3.9185028976       -0.3744668652
 H         -4.4611173421        4.1352172115        1.3628742258
 C         -2.6845130223        3.0684948142        0.7879638938
 H         -2.6023101347        2.0846764222        1.2566613112
 H         -2.2224178976        3.7810805364        1.4752655856
 C         -1.8448692883        3.0720051813       -0.4896506795
 H         -0.8333310094        2.7550906919       -0.2207518019
 H         -1.7867567846        4.0883709048       -0.8870186661
 C         -2.3703640549        2.1442356918       -1.5932989292
 H         -3.2793263595        2.5575960258       -2.0308682070
 H         -1.6079709654        2.0708123169       -2.3725800603
 H         -6.1383022739        2.6107217145        0.7379612993
 H         -4.9154382002        1.6810015625        1.6071073810
 H         -5.1478709499        1.8024718997       -1.4310518112
 H         -5.8902525433        0.5572851929       -0.4111113861
 O         -4.0128525099       -0.8131722334        0.0222731720
 C         -2.9887341518       -1.7411388360        0.1041431584
 O         -3.3116746922       -2.8021260565        0.6769117474
 O         -0.4184955053        0.1422620729       -1.6285882211
 C         -0.6891974297       -2.5238752083       -0.3190401718
 C          0.1721601972       -2.2395064766        0.8894965962
 C          0.0437438614       -3.0193922772        2.0333821885
 C          0.8043851749       -2.7504964813        3.1567984561
 C          1.6985040526       -1.6963826965        3.1604288887
 C          1.8333657754       -0.9062828407        2.0224859904
 C          1.0808860795       -1.1891586202        0.8913265013
 H          1.1720485991       -0.5612041239        0.0213589627
 N          2.7521078121        0.1487126992        2.0095911629
 S          2.5169574633        1.5559939331        1.1301684284
 O          3.2993504224        2.5428903296        1.8488410592
 O          1.1175013222        1.8597657415        0.9646388156
 C          3.3293682215        1.2210349558       -0.4172985659
 C          4.7037485895        1.0783278441       -0.3806066636
 C          5.3837421328        0.8129982652       -1.5569418869
 C          4.6807218946        0.6958238675       -2.7472164752
 C          3.3033279699        0.8446425695       -2.7666492544
 C          2.6150018893        1.1118216796       -1.5919111455
 H          1.5408046885        1.2131298997       -1.5783267523
 H          2.7521753607        0.7508118599       -3.6889670753
 H          5.2086151826        0.4878312995       -3.6647455578
 H          6.4555808589        0.6973369133       -1.5441155809
 H          5.2106523857        1.1886867050        0.5635833944
 H          3.2025150490        0.3321719942        2.8935625662
 H          2.2872899905       -1.4788719474        4.0388552430
 H          0.6944299083       -3.3617778659        4.0398720785
 H         -0.6742199238       -3.8267590552        2.0416786946
 H         -1.2468487196       -3.4485443600       -0.1160695986
 C          0.1423494436       -2.7352393668       -1.5678133153
 C          0.8577055509       -4.0396394197       -1.7447268019
 C         -0.3274147952       -3.7118820572       -2.6016780734
 H         -0.1656095676       -3.4764151094       -3.6427237850
 H         -1.2545796859       -4.2337100529       -2.4123918729
 H          1.8374377300       -4.0313748583       -2.1967198874
 H          0.7337186930       -4.7863715368       -0.9748542812
 H          0.6329122072       -1.8392561825       -1.9219142147
