  62
        -98.94585318
 C         -2.0524678084       -1.0990221627       -0.4693943846
 C         -1.0656550733       -1.4944665526       -1.4086446344
 C         -0.2147276102       -2.6267363620       -1.0324866264
 C         -0.3727254911       -3.1978868396        0.1750492606
 C          0.4195513942       -4.3551922669        0.7196958176
 C          1.7629967471       -3.9420776723        1.3366063325
 C          2.8551405877       -3.5836523447        0.3280655224
 H          2.9351933511       -4.3758331413       -0.4178006113
 H          3.7986868403       -3.5525731029        0.8766298340
 C          2.6481763049       -2.2317413082       -0.3689079736
 H          3.5923484837       -1.6804517778       -0.3808747150
 H          1.9425060365       -1.6311616581        0.2106444539
 C          2.1649473234       -2.3299487853       -1.8155783189
 H          2.9281091197       -2.8250025328       -2.4206601978
 H          2.0366551307       -1.3156176117       -2.1976963720
 C          0.8393821617       -3.0800591834       -1.9985795877
 H          0.9997495520       -4.1535425559       -1.8958804114
 H          0.4696304213       -2.8767736563       -3.0069528038
 H          2.1162057391       -4.7789622066        1.9441536812
 H          1.5942119402       -3.0916047602        2.0027619455
 H          0.5878464472       -5.0920097721       -0.0667142411
 H         -0.1935647420       -4.8112831561        1.5001053417
 O         -1.3170520875       -2.7853313682        1.0566888542
 C         -2.1603643111       -1.7142680263        0.7795182280
 O         -2.9449819391       -1.4511868448        1.7093944658
 O         -0.9118698032       -0.9219898931       -2.5223049867
 C         -2.8936315718        0.1073519494       -0.8546508722
 C         -2.1118327275        1.3693811103       -0.5823230700
 C         -2.1189966781        2.4403313369       -1.4688237935
 C         -1.3530068650        3.5658091108       -1.2190921823
 C         -0.5265354243        3.6236142925       -0.1105828133
 C         -0.5026187784        2.5517090390        0.7733095689
 C         -1.3236099348        1.4562322273        0.5557660775
 H         -1.3028421488        0.6403927755        1.2616322216
 N          0.3864729239        2.5070645965        1.8690827597
 S          1.5453289299        1.2926625834        1.7801713442
 O          0.9146238887       -0.0004826223        1.8054400524
 O          2.4719688615        1.5779476044        2.8539313233
 C          2.3391227654        1.5829559000        0.2089427818
 C          1.7118047606        1.1730896588       -0.9506597438
 C          2.2874322152        1.4919932762       -2.1708656128
 C          3.4755872612        2.2045215811       -2.2120259008
 C          4.0971716494        2.6031131334       -1.0379611962
 C          3.5208403974        2.2984702716        0.1844148436
 H          3.9653928043        2.5894139581        1.1225182564
 H          5.0236273686        3.1533365489       -1.0716872312
 H          3.9182966478        2.4480127345       -3.1648058946
 H          1.7934892944        1.1787463989       -3.0773902153
 H          0.7937773780        0.6089263678       -0.8963394982
 H          0.8461410888        3.3882354015        2.0565507382
 H          0.1042722824        4.4821292835        0.0635267418
 H         -1.3746877084        4.3938142731       -1.9106331707
 H         -2.7131615436        2.3783496597       -2.3684252798
 H         -3.0225704958        0.0359940997       -1.9473769509
 C         -4.2795753231        0.1263908757       -0.2307709843
 C         -4.6405456623        1.0174501729        0.9157527686
 C         -5.1948680990        1.2952552920       -0.4474255724
 H         -6.2409930619        1.1006291302       -0.6283475287
 H         -4.8038238938        2.1491129253       -0.9787690176
 H         -5.2899106489        0.6146180710        1.6775472262
 H         -3.8773927630        1.6741202075        1.3047839375
 H         -4.7366068890       -0.8574989165       -0.2338034231
