  62
        -98.94462873
 C         -2.0630069095       -0.3112228004       -0.1551618903
 C         -3.0498370095       -0.8689879000        0.6947085500
 C         -4.2561246794       -0.0592802098        0.8939809096
 C         -4.3476473194        1.1534478000        0.3183955692
 C         -5.4986885893        2.1128352101        0.4554334488
 C         -6.6593624193        1.8387326998       -0.5107956811
 C         -7.5015326494        0.6050493100       -0.1831607106
 H         -7.8223233694        0.6519616805        0.8579792094
 H         -8.3989989294        0.6563881698       -0.8028620906
 C         -6.7950744195       -0.7320086101       -0.4471235300
 H         -5.9336840295       -0.5662656305       -1.0982202801
 H         -7.4731558696       -1.4033714903       -0.9787641098
 C         -6.3295145195       -1.4623601697        0.8125302203
 H         -5.8113603696       -2.3750201798        0.5074768006
 H         -7.1967485996       -1.7514013594        1.4102771604
 C         -5.3759004295       -0.6488089594        1.6973475199
 H         -5.9238947694        0.1348686009        2.2199568796
 H         -4.9357740095       -1.3218168891        2.4371871702
 H         -6.2572697793        1.7476925794       -1.5225012911
 H         -7.3127425893        2.7140544799       -0.4909193614
 H         -5.1006193092        3.1073231500        0.2421824484
 H         -5.8669501793        2.0994573606        1.4817080188
 O         -3.3622251793        1.6694384296       -0.4626385011
 C         -2.2069333494        0.9490990194       -0.7352065108
 O         -1.4095134894        1.5353441490       -1.4917445411
 O         -2.9256422696       -1.9873492797        1.2609107404
 C         -0.7935186095       -1.1078200506       -0.4063694300
 C          0.3661118105       -0.3627841104        0.2051858097
 C          0.4747738606       -0.3218298899        1.5931923097
 C          1.4920572606        0.3864424403        2.2031829294
 C          2.4235764707        1.0715539999        1.4422565991
 C          2.3257759806        1.0340839894        0.0581655791
 C          1.3100834506        0.3097889792       -0.5539431606
 H          1.2420693505        0.3017880188       -1.6300627506
 N          3.2703830207        1.7251021290       -0.7185741812
 S          4.8871591107        1.5531011590       -0.3295046912
 O          5.2142653107        2.4027008195        0.7885311385
 O          5.6043479507        1.8196736985       -1.5564163613
 C          5.0619098105       -0.1595459208        0.1395108095
 C          5.3740502105       -0.4924216203        1.4415780496
 C          5.4552659205       -1.8313987102        1.7897612102
 C          5.2209279804       -2.8085846405        0.8352722806
 C          4.9127106304       -2.4579618510       -0.4704984495
 C          4.8296969505       -1.1213228112       -0.8239064301
 H          4.5983106605       -0.8138519616       -1.8310011302
 H          4.7331893403       -3.2201485813       -1.2116703192
 H          5.2798069103       -3.8502008304        1.1090338710
 H          5.6969754204       -2.1069019198        2.8036662603
 H          5.5489803506        0.2985520700        2.1523768293
 H          3.1148773706        1.6563862886       -1.7130728512
 H          3.2137778207        1.6451341201        1.8987748688
 H          1.5600272306        0.4113518207        3.2801330193
 H         -0.2606040495       -0.8467778196        2.1870645399
 H         -0.9275578496       -2.0456903503        0.1501209104
 C         -0.6202772096       -1.4328972812       -1.8744166399
 C          0.3090954503       -2.5363281514       -2.2807200894
 C         -1.1728800297       -2.7202155514       -2.4053730993
 H         -1.6128917697       -2.7233404917       -3.3914967893
 H         -1.6689642997       -3.3764033110       -1.7054074191
 H          0.8884074503       -2.4183542318       -3.1837971295
 H          0.8200200803       -3.0690611811       -1.4933473892
 H         -0.6935810695       -0.5622481814       -2.5156209102
