  62
        -98.93881353
 C         -1.9121181532       -0.2980423125        0.0383636441
 C         -2.9579434977       -1.1340076041        0.4938613769
 C         -4.2644285128       -0.4908455572        0.7140049970
 C         -4.3837584882        0.8310921572        0.5006001521
 C         -5.6298877967        1.6653804631        0.6108352345
 C         -6.3233863514        1.7856048757       -0.7568834484
 C         -7.3036016105        0.6594772320       -1.0835589183
 H         -8.1916766458        0.7643936186       -0.4567578215
 H         -7.6177122622        0.7936376492       -2.1212749980
 C         -6.7519970426       -0.7589247976       -0.9164910445
 H         -5.7402384356       -0.8104073807       -1.3228987338
 H         -7.3733474539       -1.4312261599       -1.5114000557
 C         -6.7557002225       -1.2403229901        0.5421064193
 H         -7.3625606800       -0.5598774027        1.1391810279
 H         -7.2402726942       -2.2172303418        0.5982485668
 C         -5.3696161657       -1.3959705729        1.1860935470
 H         -5.4670600096       -1.2911588415        2.2717691911
 H         -4.9949456766       -2.4078566590        1.0029749771
 H         -5.5453079836        1.8314827230       -1.5233876006
 H         -6.8701492892        2.7301641414       -0.7910364707
 H         -6.3030332573        1.2574974351        1.3589522365
 H         -5.3111660016        2.6605651577        0.9278186313
 O         -3.3436946020        1.6048692296        0.0843772684
 C         -2.0903395610        1.0700525491       -0.1643960896
 O         -1.2468125244        1.9006334164       -0.5510428868
 H          1.6367401821        0.6947950906       -0.8251466145
 C          1.5122551648        0.5038772469        0.2267639266
 C          0.4689152886       -0.2822159537        0.6872660538
 C          0.3312860272       -0.4736585155        2.0608880735
 C          1.2095195184        0.1159383665        2.9479106679
 C          2.2504915895        0.9021354092        2.4839246226
 C          2.3972472582        1.1004949343        1.1167737178
 N          3.4296930126        1.9156024636        0.6268352683
 S          4.3521940843        1.4607241780       -0.6885395692
 O          5.4681123689        2.3806270960       -0.6800680787
 O          3.5538595275        1.4354567715       -1.8865764425
 C          4.9232383823       -0.1801384249       -0.2852256793
 C          4.1770394400       -1.2757904927       -0.6696799308
 C          4.6024669358       -2.5396168089       -0.2911885458
 C          5.7582123788       -2.6856512719        0.4601835772
 C          6.4984003178       -1.5746968959        0.8357954532
 C          6.0761909545       -0.3085216535        0.4651001555
 H          6.6259074667        0.5810405205        0.7269130994
 H          7.3995240626       -1.6915910720        1.4159562689
 H          6.0847256400       -3.6714854192        0.7514907558
 H          4.0285702432       -3.4040736641       -0.5847517021
 H          3.2866183066       -1.1257874836       -1.2571483597
 H          4.0108747911        2.3267993338        1.3424711752
 H          2.9345397776        1.3707021068        3.1751297669
 H          1.0870332419       -0.0378551387        4.0093851293
 H         -0.4857301235       -1.0839958673        2.4207814061
 C         -0.5492075759       -0.9148315833       -0.2275254110
 H         -0.6527596251       -1.9730042983        0.0528867155
 C         -0.2007323976       -0.8351508333       -1.6979336724
 C          0.7472331301       -1.8302679476       -2.2951371525
 C         -0.7138139670       -1.8964001696       -2.6227870688
 H         -1.0368438962       -1.6060424909       -3.6113197576
 H         -1.3000761248       -2.6927357803       -2.1878627405
 H          1.1479972356       -2.5897660072       -1.6406076794
 H          1.4308492989       -1.4943865087       -3.0610495288
 H         -0.1784640812        0.1809640284       -2.0759518508
 O         -2.8085952677       -2.3682545615        0.7033117157
