  62
        -98.94041595
 C         -1.7696864198       -0.9975889795       -0.2511979100
 C         -3.1167113899       -1.3047670493        0.0459298901
 C         -4.1181807097       -0.2805027292       -0.2986008501
 C         -3.7140280295        0.8765650007       -0.8559200403
 C         -4.5008575894        2.0763675307       -1.3411971805
 C         -5.9647924193        2.2624500910       -0.9505384905
 C         -6.2015443293        2.5420715613        0.5332734894
 H         -7.2792854293        2.5583612815        0.7095437894
 H         -5.8115742192        3.5361250712        0.7661186292
 C         -5.5548730795        1.5554643213        1.5023116996
 H         -5.8012834994        1.8749294915        2.5185760095
 H         -4.4684062595        1.6040875312        1.4047917896
 C         -6.0020565997        0.1028146814        1.3514221298
 H         -7.0907369197        0.0447794115        1.4083155798
 H         -5.5932394798       -0.4572252785        2.1968754499
 C         -5.5395407098       -0.6017441189        0.0641541099
 H         -6.2062240597       -0.3857165490       -0.7672502401
 H         -5.5743585799       -1.6810042689        0.2396111901
 H         -6.5533611195        1.4098524710       -1.2762104104
 H         -6.3276831392        3.1287058309       -1.5105326307
 H         -4.4359280894        2.0504058705       -2.4346371705
 H         -3.9312558992        2.9543230107       -1.0204718606
 O         -2.3986200495        1.1253034204       -1.1271928003
 C         -1.4001749196        0.2103570503       -0.8374841802
 O         -0.2534297596        0.5881644501       -1.1410391602
 O         -3.4718654100       -2.3915410491        0.5768228403
 C         -0.6905843900       -2.0153376196        0.0673668402
 C          0.3611432701       -1.4018362296        0.9571996501
 C         -0.0390390298       -0.7540708793        2.1242670600
 C          0.8894477503       -0.1761510893        2.9670414599
 C          2.2391391703       -0.2252670296        2.6617779899
 C          2.6504585002       -0.8761812598        1.5061835601
 C          1.7144978501       -1.4695893698        0.6680666101
 H          2.0653343900       -1.9637221100       -0.2217534898
 N          4.0169627902       -0.9710815401        1.1830516601
 S          4.5733706103       -0.4466258004       -0.3060891000
 O          3.9223600902       -1.1769397105       -1.3616176799
 O          6.0112748902       -0.5860408806       -0.2254063600
 C          4.1523002105        1.2858782496       -0.3682460603
 C          5.1398149306        2.2115031995       -0.0879570804
 C          4.8175983808        3.5583754096       -0.0803439407
 C          3.5147392109        3.9558561997       -0.3421424207
 C          2.5356988408        3.0137806198       -0.6156735206
 C          2.8505967806        1.6632359398       -0.6306044404
 H          2.0932836405        0.9253026498       -0.8439891803
 H          1.5182413408        3.3080625999       -0.8194121307
 H          3.2603097910        5.0041520598       -0.3343106709
 H          5.5790939309        4.2919442895        0.1304918692
 H          6.1389849606        1.8559893394        0.1061347796
 H          4.6308442402       -0.6233360901        1.9067435400
 H          2.9664729703        0.2321975104        3.3152021799
 H          0.5617654903        0.3233243309        3.8662701298
 H         -1.0940957898       -0.7088890192        2.3586228700
 H         -1.1966253801       -2.8132655394        0.6313672603
 C         -0.1344908300       -2.6059001199       -1.2113027197
 C          0.4263461698       -3.9954283600       -1.2192597194
 C         -0.8844338602       -3.7122524299       -1.8879088795
 H         -0.9280567602       -3.7215386401       -2.9667453595
 H         -1.7888044702       -4.0608697897       -1.4107448094
 H          1.2885623797       -4.1967043402       -1.8374181694
 H          0.4129593197       -4.5448623798       -0.2900382393
 H          0.3389583001       -1.8644915601       -1.8466320998
