  62
        -98.93818960
 C         -0.7863732599       -1.2146525493        0.7233482891
 C         -1.1291981995       -0.7789911493       -0.5785018010
 C         -2.0753561793        0.3505936909       -0.6597765012
 C         -2.4963047295        0.9384857810        0.4721603187
 C         -3.5263975993        2.0251082812        0.6097784784
 C         -4.9190320695        1.4178574714        0.8539939281
 C         -5.7018337492        1.0743777515       -0.4128672121
 H         -6.0186010689        1.9989597116       -0.8999965422
 H         -6.6044070794        0.5428260617       -0.1024374023
 C         -4.9532896691        0.2147711714       -1.4350817319
 H         -5.6963121290       -0.2589873185       -2.0797031621
 H         -4.4167618794       -0.5851060587       -0.9214077018
 C         -3.9804514688        1.0213552212       -2.3082018617
 H         -4.1920951286        2.0834055012       -2.1864252418
 H         -4.1631447386        0.7881893512       -3.3591068717
 C         -2.4892317889        0.7560372309       -2.0475848013
 H         -1.9113843787        1.6390202408       -2.3366314012
 H         -2.1483763189       -0.0633506591       -2.6879670612
 H         -5.5135336595        2.1249879116        1.4361257079
 H         -4.7930035098        0.5196693914        1.4642922481
 H         -3.2482015394        2.6159529012        1.4842414484
 H         -3.5318434290        2.6665224812       -0.2657821616
 O         -2.0575185398        0.5539290910        1.7029607888
 C         -1.2037758400       -0.5211634192        1.8608339190
 O         -0.8866572404       -0.7550773792        3.0451896391
 H          1.7729643003       -0.3686753197        0.6925910997
 C          2.0587261803       -1.1657634698        0.0216870398
 C          1.3085055801       -2.3354085697        0.0097791897
 C          1.6891537501       -3.3614582597       -0.8440557302
 C          2.7917578003       -3.2088109300       -1.6669556699
 C          3.5308683405       -2.0410925901       -1.6579313598
 C          3.1539488305       -1.0048124900       -0.8091156499
 N          3.8497672007        0.2072591899       -0.8145332798
 S          3.7067987206        1.3556951899        0.3731788702
 O          4.7331311609        2.3235796198        0.0477542904
 O          3.7858408702        0.7827359200        1.6972246702
 C          2.1111135808        2.0978728102        0.1060964297
 C          1.2883910106        2.3445632304        1.1865728295
 C          0.0761097208        2.9808265806        0.9764506192
 C         -0.2919825489        3.3554989106       -0.3059406409
 C          0.5421951414        3.0945140004       -1.3818476307
 C          1.7574402812        2.4620653802       -1.1772709703
 H          2.4318976714        2.2485703301       -1.9896875102
 H          0.2520856217        3.3857811605       -2.3787246007
 H         -1.2336940087        3.8561796708       -0.4640146011
 H         -0.5739051894        3.1749495907        1.8148641691
 H          1.6040751203        2.0267710403        2.1687597296
 H          4.7048832609        0.2468467097       -1.3453887696
 H          4.3846077907       -1.9222702302       -2.3071227196
 H          3.0770939504       -4.0114973400       -2.3300313499
 H          1.1131484300       -4.2710872196       -0.8842119403
 C          0.1290007399       -2.4053692894        0.9485315594
 H          0.5170429896       -2.2762831295        1.9736389595
 C         -0.5870892104       -3.7482703793        0.9210410393
 C         -2.0447599905       -3.8551587990        1.2541065689
 C         -1.5765339102       -4.1012621992       -0.1470260810
 H         -1.5899540303       -5.1153143892       -0.5189946410
 H         -1.7822009199       -3.3566337892       -0.8991981410
 H         -2.5788223604       -2.9398851690        1.4654621188
 H         -2.3739316808       -4.6967272190        1.8452262988
 H          0.0448998794       -4.5516630794        1.2872437794
 O         -0.6918740593       -1.3095502394       -1.6316813108
