  62
        -98.94194991
 C          1.2330780553        1.5604132731        0.5303752461
 C          2.1340519378        1.1293534266       -0.4718976235
 C          3.1009478703        0.0912188936       -0.0760318381
 C          3.0894425286       -0.3809988764        1.1819754760
 C          4.0014657803       -1.4049110503        1.8101667075
 C          4.3265457741       -2.6631337294        0.9943638574
 C          3.1988202088       -3.1610330182        0.0781715040
 H          3.0485005239       -4.2290552944        0.2500744608
 H          2.2550991967       -2.6657222480        0.3181866883
 C          3.5075729243       -2.9678792663       -1.4083779221
 H          2.8685991817       -3.6417299047       -1.9845927058
 H          4.5450746105       -3.2565272229       -1.5941786791
 C          3.2740170464       -1.5572434082       -1.9458243666
 H          2.2011372846       -1.3420687476       -1.9441682595
 H          3.6051790333       -1.5333811098       -2.9871756218
 C          3.9811841773       -0.4296681811       -1.1746206467
 H          4.9491880477       -0.7541704111       -0.8004710315
 H          4.1332657935        0.4061493073       -1.8630120937
 H          5.2175995884       -2.4874659610        0.3927518886
 H          4.5812389303       -3.4450752963        1.7120672976
 H          4.9360911033       -0.9058047361        2.0835521424
 H          3.5050706619       -1.6930526687        2.7400481409
 O          2.2123054913        0.0746663572        2.1207564228
 C          1.2442429764        1.0147279034        1.8112893959
 O          0.4643982065        1.2790731320        2.7508419524
 O          2.1341221025        1.5861143845       -1.6446915843
 C          0.1347779711        2.5482450008        0.1879244387
 C         -0.7713214451        1.9746621198       -0.8781003331
 C         -1.4514844005        2.7614318873       -1.8001263571
 C         -2.2816950772        2.1749648710       -2.7399744913
 C         -2.4629293561        0.8037533132       -2.7779828944
 C         -1.7883856621        0.0087085159       -1.8584994862
 C         -0.9608038506        0.6014576432       -0.9196697120
 H         -0.4251460715       -0.0292477905       -0.2288498379
 N         -1.9155998375       -1.3871431524       -1.8653019540
 S         -1.7965108906       -2.2675348551       -0.4514117280
 O         -0.4427132382       -2.2667829127        0.0423701413
 O         -2.3404169160       -3.5626633396       -0.8004288725
 C         -2.9001516718       -1.4469399591        0.6844160102
 C         -4.2559872088       -1.5701657259        0.4442937342
 C         -5.1496449136       -0.9099544193        1.2702467076
 C         -4.6753842228       -0.1329747759        2.3170456259
 C         -3.3137160410       -0.0229150174        2.5484982943
 C         -2.4144339131       -0.6859433647        1.7271896035
 H         -1.3510272668       -0.6101180452        1.8938793583
 H         -2.9323794090        0.5788824366        3.3582687565
 H         -5.3690984351        0.3874290881        2.9582967109
 H         -6.2096296059       -0.9994352996        1.0956236157
 H         -4.5840786684       -2.1931988594       -0.3718163449
 H         -2.6115784668       -1.7588537859       -2.4936244118
 H         -3.1062231215        0.3511351746       -3.5165765601
 H         -2.7986808230        2.7965267341       -3.4551130881
 H         -1.3235943213        3.8316378101       -1.7879897550
 H         -0.4618726146        2.6701248412        1.1051128574
 C          0.7199750842        3.8928944275       -0.1948675097
 C          0.0061920432        5.1623573840        0.1579069426
 C          1.2578952343        4.7794712564        0.8868226048
 H          2.1624050831        5.3368609007        0.6953304852
 H          1.1713721302        4.4254201498        1.9041653682
 H          0.0531105176        5.9889926641       -0.5350058120
 H         -0.9300221901        5.0815033260        0.6894916909
 H          1.2686218409        3.8539034196       -1.1285606314
