  62
        -98.94787178
 C          0.9993856609        0.9728840805        0.7166076531
 C          1.6378303135        0.8673725529       -0.5423336813
 C          2.3216172454       -0.4047511803       -0.8038868114
 C          2.2521525951       -1.4001322173        0.0974392992
 C          2.8576256478       -2.7705245396       -0.0469822315
 C          4.3408365933       -2.8454578171        0.3412286827
 C          5.3079029410       -2.1936025976       -0.6476278158
 H          5.1136322835       -2.5770757758       -1.6498156105
 H          6.3144142499       -2.5099583739       -0.3667381965
 C          5.2591667067       -0.6594697410       -0.6634854207
 H          6.2766099664       -0.2625390304       -0.6482553528
 H          4.7608330296       -0.3011638775        0.2400383281
 C          4.5579187254       -0.0609971613       -1.8830103199
 H          5.1219152728       -0.3028428266       -2.7866492395
 H          4.5464644684        1.0264021664       -1.7739250812
 C          3.1097743874       -0.5320018712       -2.0716294637
 H          3.0893755457       -1.5612591306       -2.4307566345
 H          2.6311221083        0.1040222883       -2.8208043865
 H          4.6011086477       -3.9030091175        0.4264860143
 H          4.4662917936       -2.3907210992        1.3264083061
 H          2.2955576910       -3.4317088059        0.6166317656
 H          2.7268459830       -3.1192570138       -1.0723165337
 O          1.5795458256       -1.2788633674        1.2733999507
 C          0.9450705267       -0.0931800201        1.6126904533
 O          0.3701641328       -0.1174605141        2.7199001192
 H         -1.4393471395        0.3719148458        0.2556078444
 C         -1.6513679876        1.3116375487       -0.2332353996
 C         -0.8816630734        2.4248713243        0.0800500740
 C         -1.1764401766        3.6312134565       -0.5402613375
 C         -2.1945934262        3.7021690112       -1.4762453122
 C         -2.9239527342        2.5793780629       -1.8218292672
 C         -2.6459923486        1.3701568844       -1.1935563871
 N         -3.3678378547        0.2061272681       -1.4959112466
 S         -2.6065949940       -1.2828515383       -1.4361679602
 O         -1.2292017139       -1.2125969622       -1.8664156800
 O         -3.4663863565       -2.1492205143       -2.2173325279
 C         -2.7066838281       -1.7681258366        0.2727686949
 C         -1.6196715013       -2.3841033305        0.8591115877
 C         -1.7033912895       -2.7772244716        2.1847800277
 C         -2.8717487334       -2.5528543930        2.8955438555
 C         -3.9589712960       -1.9412730039        2.2898049223
 C         -3.8804948111       -1.5447716958        0.9646771200
 H         -4.7018438877       -1.0616489686        0.4623327888
 H         -4.8647207003       -1.7678704766        2.8483439434
 H         -2.9306261287       -2.8532111037        3.9297483176
 H         -0.8518569441       -3.2394181240        2.6576898336
 H         -0.7225369212       -2.5227869948        0.2749049782
 H         -4.0029460567        0.2807719795       -2.2771180966
 H         -3.6977512272        2.6327059172       -2.5723343298
 H         -2.4107823799        4.6435459705       -1.9583567285
 H         -0.6019837363        4.5116022798       -0.3031559157
 C          0.2369031766        2.2361544141        1.0768930117
 H         -0.2115533372        2.0506891834        2.0640876958
 C          1.1721125479        3.4221169838        1.1764325443
 C          0.8472374718        4.5643469774        2.0902839995
 C          1.9572411564        3.6195404779        2.4371826571
 H          2.9765715197        3.9670581306        2.3607109591
 H          1.7966822966        2.9105177303        3.2364945015
 H         -0.0659292407        4.5025988062        2.6625245801
 H          1.1071800901        5.5646156042        1.7782857515
 H          1.6693449883        3.6392013745        0.2381914643
 O          1.6413304823        1.7861638339       -1.4030472126
