  62
        -98.94450142
 C         -2.6076245702       -1.1122738028        0.1856976739
 C         -2.5581992991       -0.1941558248       -0.8912695207
 C         -3.1955632993        1.1102055983       -0.6550126892
 C         -3.7982492535        1.3544518500        0.5218805852
 C         -4.4363902039        2.6555716675        0.9106984042
 C         -3.4366137536        3.5735748203        1.6275243843
 C         -2.0997506822        3.7254434271        0.9007950902
 H         -1.4933399687        4.4270251481        1.4780281935
 H         -1.5695914635        2.7694686329        0.9091255927
 C         -2.2143812261        4.2239716811       -0.5463876251
 H         -1.4549971420        4.9911038475       -0.7118447815
 H         -3.1882427922        4.6897689439       -0.7033414654
 C         -1.9906527825        3.1446753242       -1.6075624524
 H         -1.0612379382        2.6088225449       -1.3905580839
 H         -1.8613357225        3.6399073538       -2.5741524330
 C         -3.1233825013        2.1213276489       -1.7643039027
 H         -4.0761389625        2.6429212781       -1.8757226179
 H         -2.9334948922        1.5524886985       -2.6792252483
 H         -3.2393900219        3.1630701237        2.6203647171
 H         -3.8973670499        4.5554331889        1.7502242464
 H         -5.2667559917        2.4418424963        1.5858174836
 H         -4.8218004152        3.1461785451        0.0191689702
 O         -3.8562809140        0.4387193179        1.5211367659
 C         -3.2457093194       -0.7950763308        1.3898586090
 O         -3.3479513287       -1.5232124730        2.3970153153
 O         -2.0196965689       -0.4270009038       -2.0078109272
 C         -1.9348252177       -2.4786924042        0.1479036033
 C         -0.4545204743       -2.2860772761        0.3738583759
 C          0.1272510797       -2.6074891156        1.5950583459
 C          1.4662008566       -2.3473869948        1.8291422738
 C          2.2475192111       -1.7457378052        0.8581347281
 C          1.6719194567       -1.4133424400       -0.3604982100
 C          0.3394378794       -1.7038381375       -0.6042515699
 H         -0.1023919169       -1.4196017521       -1.5475573987
 N          2.4480455644       -0.7412456373       -1.3343659281
 S          2.8400390907        0.8403714280       -0.8967442924
 O          1.8399491245        1.4097826835       -0.0213536753
 O          3.0846426272        1.5419063187       -2.1382762783
 C          4.3804223474        0.6486389748       -0.0245993212
 C          4.4722953065        1.0125037242        1.3042279593
 C          5.6819194718        0.8473923853        1.9614557578
 C          6.7711578543        0.3240935670        1.2815973093
 C          6.6625369184       -0.0348521331       -0.0539149720
 C          5.4568074049        0.1285291702       -0.7168298578
 H          5.3286043865       -0.1319690824       -1.7541455932
 H          7.5119461784       -0.4409959527       -0.5790672547
 H          7.7103186891        0.1951052963        1.7961446218
 H          5.7678433353        1.1255671608        2.9996221157
 H          3.5962173813        1.4088958582        1.7923879279
 H          1.9882451752       -0.7179540402       -2.2353937887
 H          3.2870368345       -1.5249200733        1.0389243033
 H          1.9032100770       -2.6049207554        2.7818650697
 H         -0.4876104798       -3.0412204992        2.3706329957
 H         -2.3383532744       -3.0315677450        1.0062987732
 C         -2.2357973950       -3.2644326717       -1.1118630335
 C         -2.0443857906       -4.7502768729       -1.1003888834
 C         -3.4266976013       -4.1726174294       -1.1366213847
 H         -3.9964580784       -4.2484250857       -2.0505650444
 H         -4.0288818518       -4.2309253336       -0.2414684483
 H         -1.6630139574       -5.2271993808       -1.9901343488
 H         -1.7095655623       -5.2030890781       -0.1794182347
 H         -2.0038560728       -2.7316853490       -2.0242008361
