  62
        -98.93006413
 C         -2.4394483049       -1.0004624464        0.2576155153
 C         -2.9525163855        0.0012671609        1.1160998773
 C         -3.6571190291        1.1361186791        0.4883764871
 C         -3.7408377001        1.1783176550       -0.8541757768
 C         -4.3671206324        2.2424948235       -1.7153678999
 C         -3.4942913186        3.5034267432       -1.8269014917
 C         -2.8689315295        3.9719974191       -0.5154428085
 H         -2.2676964876        3.1630211117       -0.0959962518
 H         -2.1877621551        4.7947210738       -0.7481585551
 C         -3.8576466312        4.4684244609        0.5368727773
 H         -3.2728565851        4.8436389249        1.3806955779
 H         -4.4248128101        5.3072743488        0.1273824734
 C         -4.8462558865        3.4293419952        1.0695475450
 H         -5.6466269786        3.2487757770        0.3570815853
 H         -5.3155484519        3.8544089036        1.9616772006
 C         -4.2150168833        2.1086795073        1.4997023649
 H         -4.9550261881        1.5415022396        2.0777050857
 H         -3.3989500689        2.3129795547        2.2023053876
 H         -4.1000066902        4.3057637957       -2.2512838095
 H         -2.6810848422        3.2887849825       -2.5245194547
 H         -4.4824805828        1.8110169500       -2.7120780228
 H         -5.3578681391        2.4868182076       -1.3437634749
 O         -3.1871872982        0.2166439170       -1.6454155456
 C         -2.5239573862       -0.8848450695       -1.1304587502
 O         -2.0715479636       -1.6532140294       -1.9982625813
 O         -2.8198501070       -0.0387699106        2.3699858234
 C         -1.7120485260       -2.1706103269        0.8943046073
 C         -0.3819590214       -2.3862565902        0.2160689726
 C         -0.0190121676       -3.5676109738       -0.4148646321
 C          1.2225453153       -3.6860771244       -1.0157591823
 C          2.1239073368       -2.6383459728       -1.0044895014
 C          1.7732298169       -1.4518726520       -0.3722318485
 C          0.5334590827       -1.3402591085        0.2379223338
 H          0.2574225587       -0.4148617446        0.7305741625
 N          2.6705745238       -0.3605689040       -0.3713694021
 S          4.2230630284       -0.6448725619        0.2355054623
 O          4.9284296532       -1.5039321060       -0.6798463364
 O          4.1458440729       -1.1068258562        1.6053901072
 C          4.9075916927        0.9984776133        0.1735403414
 C          5.3825987527        1.4693516266       -1.0355540295
 C          5.8944051904        2.7555022980       -1.0982660183
 C          5.9214924438        3.5448741428        0.0420206411
 C          5.4416394762        3.0579316396        1.2484549784
 C          4.9271275694        1.7726516021        1.3177465654
 H          4.5519662426        1.3501029167        2.2362805758
 H          5.4663662552        3.6727960003        2.1337756370
 H          6.3216174728        4.5451887245       -0.0089394787
 H          6.2701984536        3.1374767357       -2.0337111482
 H          5.3487308930        0.8175120030       -1.8927347296
 H          2.2747674819        0.4335133790        0.1157810541
 H          3.0929031523       -2.7256262688       -1.4676249751
 H          1.4900740127       -4.6086899782       -1.5087489123
 H         -0.7146636721       -4.3893969118       -0.4562474481
 H         -1.5100854186       -1.8343821829        1.9258884268
 C         -2.5433272474       -3.4386234261        1.0146365329
 C         -4.0368964176       -3.3743787381        1.1221290987
 C         -3.3983283905       -3.9532672305       -0.1028567572
 H         -3.4551969136       -5.0217779385       -0.2519570002
 H         -3.4217461887       -3.3833535591       -1.0180456009
 H         -4.5309184383       -4.0419317289        1.8120747896
 H         -4.5023887797       -2.4024077623        1.0449811522
 H         -2.0509840624       -4.1840177749        1.6321991064
