  62
        -98.93782962
 C          1.7666724755        1.5774860056        0.1584401775
 C          1.9594154746        0.5650292272        1.1302145497
 C          2.9655250738       -0.4731535572        0.8398667950
 C          3.6405945903       -0.4068225474       -0.3227967964
 C          4.7035476366       -1.3401057421       -0.8390322329
 C          4.1289336783       -2.6591241006       -1.3812523591
 C          3.0227046891       -3.2728655849       -0.5274850784
 H          2.2220179438       -2.5409708424       -0.4099869654
 H          2.6140621617       -4.1254523112       -1.0761623032
 C          3.4615003275       -3.7751056896        0.8459788787
 H          2.5958620581       -4.2538165224        1.3116254592
 H          4.2308997653       -4.5399720048        0.7183880962
 C          3.9934430174       -2.7127060122        1.8095624710
 H          4.0528479689       -3.1731390025        2.8003316284
 H          5.0059484827       -2.4190500561        1.5461982770
 C          3.1082972584       -1.4786127931        1.9571206594
 H          3.4533496065       -0.9068288880        2.8272994123
 H          2.0895579965       -1.7945555075        2.2096250136
 H          3.7128615055       -2.4621738917       -2.3720600281
 H          4.9469830399       -3.3723658864       -1.4944741868
 H          5.2074749769       -0.8187379691       -1.6558011500
 H          5.4401714175       -1.5266051208       -0.0628933496
 O          3.3953712299        0.5633176630       -1.2459265131
 C          2.4537688265        1.5589332355       -1.0552914506
 O          2.3457076925        2.3360023351       -2.0227349829
 O          1.3153437997        0.5282317056        2.2143046866
 C          0.7321543406        2.6444371127        0.4788294454
 C         -0.5912085714        2.2234349627       -0.1123952376
 C         -0.8617055224        2.3356456636       -1.4717963901
 C         -2.0679621797        1.8905537900       -1.9824433915
 C         -3.0222470466        1.3220432565       -1.1562459636
 C         -2.7540107957        1.1931146733        0.1998340833
 C         -1.5463286840        1.6459301104        0.7123231830
 H         -1.3316643830        1.5275281339        1.7657851981
 N         -3.7076592556        0.5960976097        1.0459175986
 S         -4.3358428357       -0.8774288169        0.5588177559
 O         -5.3599344157       -0.6589553190       -0.4314535761
 O         -4.7620264212       -1.5315656297        1.7752934163
 C         -2.9597055580       -1.7453936112       -0.1725666506
 C         -2.9573213206       -2.0210406992       -1.5243813322
 C         -1.8588378169       -2.6611962249       -2.0753814394
 C         -0.7865362381       -3.0095719324       -1.2694024557
 C         -0.8054847670       -2.7278422160        0.0879813282
 C         -1.8998556761       -2.0871435282        0.6439265404
 H         -1.9427177456       -1.8575440107        1.6967771952
 H          0.0302938074       -2.9980180441        0.7138760914
 H          0.0701274643       -3.5044496401       -1.6990214209
 H         -1.8402615481       -2.8831838388       -3.1301911645
 H         -3.8118556277       -1.7337613411       -2.1148564028
 H         -3.4152005779        0.5536461748        2.0116752579
 H         -3.9668754454        0.9727236297       -1.5404384545
 H         -2.2679667856        1.9846074128       -3.0389494305
 H         -0.1098284650        2.7493400483       -2.1255235077
 H          0.6271520128        2.6230084387        1.5720980742
 C          1.1330943696        4.0446983558        0.0666384965
 C          0.3977457432        5.2067479302        0.6620173276
 C          1.8159109897        4.9328505168        1.0612865211
 H          2.5901482328        5.5982565034        0.7100463232
 H          1.9998158360        4.5338761880        2.0483809104
 H          0.1946040522        6.0625104481        0.0369472734
 H         -0.3814078099        4.9913970539        1.3778638947
 H          1.4510252004        4.1244640273       -0.9637968430
