  62
        -98.93365655
 C         -2.2270594291       -0.8390006500        0.6089843802
 C         -3.3668561093       -0.9251736097       -0.2246249796
 C         -4.4567078092        0.0343987802        0.0428486409
 C         -4.3154528891        0.9512995898        1.0167785213
 C         -5.2560928291        2.0227695295        1.5284042919
 C         -6.5036533092        2.4109578499        0.7389878422
 C         -6.2269080594        3.1172979004       -0.5879675075
 H         -5.8274090794        4.1119068503       -0.3741877872
 H         -7.1768005095        3.2458072806       -1.1113448173
 C         -5.2388423895        2.4154098908       -1.5162998180
 H         -4.2586602494        2.3625889206       -1.0374384081
 H         -5.1254470597        3.0327802812       -2.4116468377
 C         -5.6472658596        1.0145901910       -1.9669823585
 H         -4.9377975897        0.6966854413       -2.7355937387
 H         -6.6396460996        1.0490312012       -2.4206323283
 C         -5.6484355494       -0.0600583595       -0.8668151689
 H         -5.5863877094       -1.0381805693       -1.3521683394
 H         -6.5711414293       -0.0380619097       -0.2925426388
 H         -7.0666755191        3.1041856996        1.3698471926
 H         -7.1365454392        1.5420556799        0.5850239019
 H         -4.6367816591        2.9125872895        1.6810399221
 H         -5.5665195089        1.6910495991        2.5254681318
 O         -3.1888120390        1.0069980195        1.7881972111
 C         -2.1387443590        0.1270486596        1.6142639706
 O         -1.1949256389        0.2990091693        2.4138360005
 O         -3.5035769794       -1.7626356393       -1.1550486600
 C         -1.0275022291       -1.7658284599        0.4919122597
 C         -0.0919383993       -1.3363398195       -0.6136206503
 C         -0.5000221195       -1.3039907489       -1.9430118102
 C          0.3823770403       -0.9151826185       -2.9338780202
 C          1.6819963504       -0.5574325886       -2.6223719002
 C          2.1033097106       -0.5963457291       -1.2979238003
 C          1.2138711707       -0.9822809496       -0.3048465603
 H          1.5440404209       -0.9874078600        0.7232061296
 N          3.4361633406       -0.2906221292       -0.9706484104
 S          3.7961282608        0.4535502702        0.5000172899
 O          3.6908689510       -0.5223045603        1.5551625895
 O          3.0177305408        1.6631063601        0.6526801205
 C          5.5137291208        0.8477618103        0.2260090198
 C          6.4439002108       -0.1693005797        0.3324099992
 C          7.7789114408        0.1158991104        0.0953229492
 C          8.1602432407        1.4062601405       -0.2420373104
 C          7.2162172707        2.4169893106       -0.3421987398
 C          5.8785173607        2.1378815904       -0.1083323197
 H          5.1107713507        2.8927003705       -0.1670886493
 H          7.5159823906        3.4198558607       -0.6004991594
 H          9.2002143507        1.6260537706       -0.4247507404
 H          8.5159068808       -0.6668103596        0.1750804587
 H          6.1015267909       -1.1532949298        0.6069655789
 H          3.9251971405        0.1638798211       -1.7304633003
 H          2.3683412703       -0.2542880382       -3.3985585302
 H          0.0532251702       -0.8868859781       -3.9617295701
 H         -1.5154855895       -1.5746767988       -2.1871539002
 H         -0.4825479690       -1.6596088403        1.4406531996
 C         -1.4106489991       -3.2242638299        0.3233948191
 C         -0.4107126791       -4.2782789200        0.6869845585
 C         -1.6260303089       -4.0709009704        1.5394372788
 H         -2.4078169089       -4.8150983004        1.5167564586
 H         -1.4979804688       -3.6009402008        2.5042645890
 H         -0.3553426691       -5.1675181598        0.0782243881
 H          0.5423020810       -3.9489598202        1.0744585485
 H         -2.0501484993       -3.4051075595       -0.5300073609
