  62
        -98.94738753
 C         -2.5651540557       -0.1313288415       -0.3983581720
 C         -2.1685852982       -0.7006191398        0.8359643753
 C         -1.7300587058       -2.1024352058        0.7832847530
 C         -1.7129547583       -2.7436070245       -0.3992104909
 C         -1.2640478458       -4.1616068451       -0.6037951444
 C          0.2284168475       -4.2386465834       -0.9502332969
 C          1.1301237669       -3.4556441427        0.0044760020
 H          0.9500786819       -2.3846292183       -0.1209935847
 H          2.1627590448       -3.6366714692       -0.3044633013
 C          0.9659392671       -3.8262383973        1.4850556151
 H          1.9581041452       -3.9110702468        1.9330236362
 H          0.4834328515       -4.8010233714        1.5734028798
 C          0.1937007161       -2.7943138890        2.3097446902
 H          0.5991140552       -1.7990661057        2.1122663828
 H          0.3532651611       -3.0147351228        3.3690662876
 C         -1.3218600498       -2.7508643418        2.0758572172
 H         -1.7622788199       -2.1377341089        2.8677788815
 H         -1.7370978987       -3.7590472663        2.1489979505
 H          0.3727458153       -3.8386300671       -1.9567565413
 H          0.5257618421       -5.2894307918       -0.9537278838
 H         -1.4675245827       -4.7327632687        0.3001177386
 H         -1.8401686320       -4.5852001844       -1.4286927381
 O         -2.0898396502       -2.1592746608       -1.5667000529
 C         -2.5061503173       -0.8391014515       -1.5970850387
 O         -2.8056664425       -0.4190280425       -2.7353418399
 H         -0.4103154913        1.0493779249       -0.9789262563
 C         -0.5905576901        1.9037566775       -0.3419257726
 C         -1.8898953242        2.2115163467        0.0385922388
 C         -2.0981243951        3.3257111967        0.8416466265
 C         -1.0249816389        4.0871908364        1.2719746915
 C          0.2707738995        3.7484362818        0.9280245028
 C          0.4876822545        2.6445935915        0.1111681195
 N          1.7870173415        2.2641561766       -0.2779841084
 S          2.0937936068        0.5989354690       -0.2986609683
 O          1.6442673621        0.0556591525       -1.5570588515
 O          1.5663402454       -0.0113762218        0.8984150401
 C          3.8764614404        0.5942131441       -0.2585017034
 C          4.5606237684        0.9602064837       -1.4024985145
 C          5.9457279043        0.9872299783       -1.3744206918
 C          6.6198441058        0.6487543278       -0.2100777824
 C          5.9196506292        0.2800687230        0.9285074610
 C          4.5336468359        0.2530130619        0.9078980520
 H          3.9455922063       -0.0317582164        1.7656294984
 H          6.4458841160        0.0135993753        1.8308568590
 H          7.6979698155        0.6699305462       -0.1912254235
 H          6.4933465778        1.2704666641       -2.2587332748
 H          3.9932676997        1.2049512424       -2.2853522541
 H          2.5020859969        2.7531615160        0.2449504642
 H          1.1070605603        4.3294044568        1.2864304850
 H         -1.1998828398        4.9474596697        1.9002439284
 H         -3.0993994929        3.5911932704        1.1393710609
 C         -3.0042290236        1.3207550256       -0.4569402779
 H         -3.1705645707        1.5443200452       -1.5219115436
 C         -4.3070610958        1.5125192764        0.2919718281
 C         -5.2910448952        2.5516328038       -0.1524575550
 C         -5.5858055747        1.0988493053       -0.3702402562
 H         -6.3491974478        0.6284176130        0.2308780470
 H         -5.5158238276        0.7046774145       -1.3739833677
 H         -5.0330639788        3.1486610173       -1.0141432894
 H         -5.8582152029        3.0794706776        0.5993383855
 H         -4.2064990142        1.3177679149        1.3534890406
 O         -2.1977950623       -0.0755194530        1.9288426019
