  62
        -98.94574893
 C          1.5025288708        1.3644923889       -0.7160872015
 C          2.7751478309        1.1473136188       -0.1251000317
 C          3.4783986202       -0.0775195918       -0.5147625110
 C          2.9175164096       -0.9078330223       -1.4119524802
 C          3.5034392489       -2.1997727630       -1.9126491593
 C          3.2200732186       -3.3957495221       -0.9933801683
 C          4.0204553790       -3.4141082114        0.3095927915
 H          3.8990394687       -4.4076755810        0.7457246123
 H          5.0799942090       -3.2820508721        0.0869034611
 C          3.5738345397       -2.3673063104        1.3402233208
 H          2.5733254798       -2.0069162502        1.0845163208
 H          3.4968542998       -2.8363411196        2.3242069012
 C          4.5175684103       -1.1721941007        1.4819771196
 H          5.4786585603       -1.5108600108        1.8757620596
 H          4.0812314408       -0.4783030299        2.2052295792
 C          4.7668269903       -0.4021973319        0.1785677289
 H          5.2582812308        0.5416489781        0.4272286780
 H          5.4197359898       -0.9756380827       -0.4790586308
 H          2.1514253987       -3.4131177514       -0.7626814179
 H          3.4557653580       -4.3036964626       -1.5537584976
 H          3.0449439585       -2.3954501435       -2.8843389090
 H          4.5794941989       -2.0892295135       -2.0500353997
 O          1.7216136395       -0.6442983522       -1.9937221000
 C          0.9616060001        0.4593596584       -1.6286403507
 O         -0.1390421000        0.5073864884       -2.2125787104
 H         -1.1045229893        0.6221442907        0.0361753698
 C         -0.9330963388        1.1278184213        0.9716288494
 C         -0.0330225483        2.1838090010        1.0236948183
 C          0.1781978023        2.8276997918        2.2360509577
 C         -0.4806158375        2.4051555730        3.3773521182
 C         -1.3377164080        1.3218177234        3.3322434893
 C         -1.5600124487        0.6722014825        2.1209622699
 N         -2.4223374392       -0.4281531972        2.0600703210
 S         -2.2409201701       -1.6865322381        0.9666193120
 O         -2.7486573404       -2.8422979173        1.6798497730
 O         -0.8877812603       -1.7906985291        0.4764213017
 C         -3.4061085203       -1.2711064186       -0.3138421380
 C         -2.9920064004       -0.8220391498       -1.5501210785
 C         -3.9530132705       -0.4952399301       -2.4964825085
 C         -5.2991285305       -0.6222156392       -2.1945226180
 C         -5.6986751103       -1.0779874981       -0.9465344675
 C         -4.7456627002       -1.4051647277        0.0025358025
 H         -5.0104780801       -1.7754486869        0.9789457528
 H         -6.7464108403       -1.1778423574       -0.7129622771
 H         -6.0394645906       -0.3655675595       -2.9358883280
 H         -3.6342774807       -0.1391011610       -3.4632586389
 H         -1.9393835604       -0.7171915804       -1.7657716489
 H         -2.7553857791       -0.7570874063        2.9539633014
 H         -1.8281534779        0.9712943843        4.2277254097
 H         -0.3079348770        2.9098932137        4.3158310178
 H          0.8824911927        3.6447357415        2.2861137368
 C          0.7386103215        2.5795684296       -0.2145382823
 H          1.5081492619        3.3019092795        0.0919267369
 C         -0.1632872485        3.2440340392       -1.2325627826
 C         -0.5283307378        4.6850925195       -1.0428310236
 C          0.4034777217        4.2865948482       -2.1468647435
 H          0.0485709414        4.3227309276       -3.1655810935
 H          1.4516246918        4.5266675679       -2.0420862340
 H         -1.5274254677        4.9997989898       -1.3015016535
 H         -0.1113457573        5.1998275600       -0.1905518441
 H         -0.9161429989        2.5836934592       -1.6410346718
 O          3.3000746715        1.9496067792        0.6937428275
