  62
        -98.94405733
 C          1.4663476157        1.5370170292        0.3697607186
 C          1.7659882007        0.3764292295        1.1244634886
 C          2.9188607270       -0.4057684029        0.6651516705
 C          3.5918791545       -0.0202896700       -0.4342464625
 C          4.7962850599       -0.7057413656       -1.0209899938
 C          4.4574139552       -1.8915734926       -1.9348545994
 C          3.9605517268       -3.1469103216       -1.2167214273
 H          3.9724677694       -3.9580990371       -1.9472577059
 H          4.6618016165       -3.4117201589       -0.4247859624
 C          2.5448275802       -3.0265637632       -0.6353078971
 H          2.0296855416       -2.1814175398       -1.0979403279
 H          1.9717172112       -3.9222895498       -0.8826834464
 C          2.4943184635       -2.8634031309        0.8833185429
 H          2.8827054706       -3.7643627940        1.3628677285
 H          1.4494516933       -2.7424660419        1.1761792093
 C          3.2709964632       -1.6538351956        1.4167200406
 H          4.3439367761       -1.8378761507        1.3646864251
 H          2.9921489362       -1.5012278043        2.4622333470
 H          5.3664179862       -2.1486272261       -2.4837026988
 H          3.7101487450       -1.5679331901       -2.6630542437
 H          5.3226574204        0.0458437986       -1.6132815830
 H          5.4554230022       -1.0392114918       -0.2189496038
 O          3.2524133462        1.0838397154       -1.1504213925
 C          2.1861028091        1.8882733133       -0.7726803929
 O          1.9977348531        2.8646084154       -1.5220677789
 O          1.1087943956        0.0179214354        2.1380911377
 C          0.3087229938        2.4134107379        0.8166234710
 C         -0.7809451305        2.3770468341       -0.2255711692
 C         -1.0794125385        3.4515534708       -1.0530445960
 C         -2.0714006782        3.3413999180       -2.0113158056
 C         -2.8009584531        2.1747970592       -2.1423268394
 C         -2.5165040034        1.0952196291       -1.3130375504
 C         -1.5020392048        1.1971403421       -0.3749729043
 H         -1.2761301693        0.3524214268        0.2613967338
 N         -3.2459195991       -0.1000827508       -1.4175872546
 S         -3.7752377344       -0.8652824411       -0.0226101558
 O         -4.9969065323       -1.5352059946       -0.4198791464
 O         -3.8885084773        0.0590478862        1.0802531059
 C         -2.5525079511       -2.1117477665        0.3142923148
 C         -2.2331123654       -2.9965723801       -0.6969992744
 C         -1.3483145459       -4.0279377267       -0.4292027439
 C         -0.8084036503       -4.1621861977        0.8410885060
 C         -1.1343317203       -3.2617092994        1.8436980284
 C         -2.0141936274       -2.2239581907        1.5798764961
 H         -2.2872956802       -1.4998370517        2.3311272442
 H         -0.7057954963       -3.3584214370        2.8286051479
 H         -0.1271640823       -4.9714613540        1.0522437958
 H         -1.0868067501       -4.7264485511       -1.2077361072
 H         -2.6849678178       -2.8674739089       -1.6664124735
 H         -3.9755192414       -0.0803680219       -2.1160019553
 H         -3.5858428627        2.0952269896       -2.8795420479
 H         -2.2869595796        4.1800198866       -2.6560414252
 H         -0.5249790449        4.3700059108       -0.9587027675
 H         -0.0827274801        1.9364357856        1.7266857128
 C          0.7806536044        3.8093625382        1.1645730583
 C         -0.0814833185        4.6899198261        2.0171973648
 C          1.1839001954        4.1127337892        2.5750068187
 H          2.0231645394        4.7717000244        2.7399456668
 H          1.1073786861        3.3143263953        3.2986141653
 H         -0.1128371119        5.7472057799        1.8024871270
 H         -1.0205782722        4.2826102909        2.3610076248
 H          1.3593153065        4.2721006370        0.3738581624
