  62
        -98.93059788
 C         -1.5800424192       -0.8565404404       -0.3528168994
 C         -2.8840670190       -1.4054789108       -0.4381887694
 C         -3.9571162494       -0.6969491004        0.2783416797
 C         -3.6469928599        0.4020206703        0.9871638888
 C         -4.5860752004        1.2997606207        1.7444895577
 C         -5.0436209504        2.4748051598        0.8636101465
 C         -6.2744261600        2.1943151988        0.0023216063
 H         -7.1557354602        2.1333686091        0.6443713561
 H         -6.4106207100        3.0527751182       -0.6594800845
 C         -6.2022446294        0.9243444481       -0.8495681125
 H         -6.9248006492        1.0243347772       -1.6619498229
 H         -5.2137229893        0.8419304679       -1.3050412921
 C         -6.5201020994       -0.3525610113       -0.0573880415
 H         -6.9526203298       -0.0770944106        0.9043229781
 H         -7.2840092891       -0.9259062020       -0.5868687413
 C         -5.3310596392       -1.2991548608        0.1634344897
 H         -5.2588831288       -1.9949612016       -0.6784027696
 H         -5.5204942794       -1.9080760301        1.0539425402
 H         -5.2697531908        3.3275266404        1.5069877557
 H         -4.2043022503        2.7603391195        0.2245384465
 H         -5.4347657804        0.7383741809        2.1238069079
 H         -4.0210566808        1.6982178016        2.5895958875
 O         -2.3791654801        0.8853631107        1.0630049488
 C         -1.3148366497        0.2879465903        0.4013445397
 O         -0.2318134899        0.8707584808        0.5786861996
 O         -3.1453037585       -2.4499872414       -1.0961609485
 C         -0.4747341887       -1.5916482708       -1.1030647584
 C          0.6118899010       -2.0070644897       -0.1458155676
 C          0.4637158011       -3.2393947891        0.4916399634
 C          1.3843997809       -3.6809413181        1.4212943341
 C          2.4954961806       -2.9133068176        1.7230266438
 C          2.6536964405       -1.6829728681        1.0998832828
 C          1.7110871207       -1.2302812091        0.1856235121
 H          1.8425997606       -0.2509109994       -0.2352218688
 N          3.7583495802       -0.8679619576        1.3862403624
 S          4.4971947905       -0.0272382185        0.1440693720
 O          4.4090217311       -0.7506606496       -1.1036512674
 O          5.8384673102        0.2287920823        0.6285845422
 C          3.6270231101        1.5196525212        0.0356851203
 C          3.2668218896        2.1612779122        1.2032597996
 C          2.6245535593        3.3852608619        1.1215238183
 C          2.3615198296        3.9471136208       -0.1182088223
 C          2.7343822601        3.2921194299       -1.2808684416
 C          3.3739615804        2.0649796601       -1.2065871803
 H          3.6638602408        1.5141666494       -2.0873420297
 H          2.5228136504        3.7264707290       -2.2449068520
 H          1.8574949594        4.8990014006       -0.1784043633
 H          2.3253187189        3.8944346227        2.0235321478
 H          3.4809631493        1.6927651230        2.1494326901
 H          4.4295895201       -1.2620053468        2.0288826730
 H          3.2276775305       -3.2582749768        2.4374768044
 H          1.2446850310       -4.6356422377        1.9056244549
 H         -0.3981241087       -3.8481882096        0.2551890736
 H         -0.9638296084       -2.5224314812       -1.4305367777
 C         -0.1001192085       -0.8706173818       -2.3933668689
 C          0.5334527912        0.4846655983       -2.4793617398
 C          1.2918993117       -0.7270219219       -2.9317887385
 H          1.4332015521       -0.8664539528       -3.9940308084
 H          2.1256291216       -1.0696777212       -2.3380776079
 H          0.1587208113        1.1640422575       -3.2323256506
 H          0.8125474108        0.9777093191       -1.5625987102
 H         -0.8683080082       -1.0541467527       -3.1414868490
