  62
        -98.94114488
 C          2.6919280472        0.3629717355        0.1105696335
 C          2.2785836706        1.1212879777       -1.0164288410
 C          1.6798538969        2.4333959958       -0.7494382235
 C          1.5670406608        2.8505748558        0.5239106964
 C          0.9886755393        4.1686963074        0.9519364209
 C         -0.5083333150        4.0634105091        1.2672548281
 C         -1.3271099954        3.3739629439        0.1758665716
 H         -1.0599502133        2.3149503937        0.1400642982
 H         -2.3758038071        3.4225856661        0.4802142835
 C         -1.1731453873        3.9822041053       -1.2251888489
 H         -2.1621913530        4.0480954363       -1.6831693507
 H         -0.7802227844        4.9973376598       -1.1497798011
 C         -0.2977218443        3.1621056973       -2.1758782240
 H         -0.4791876111        3.5128280371       -3.1957325107
 H         -0.5987455508        2.1122479438       -2.1258336092
 C          1.2143951188        3.2411757454       -1.9270598234
 H          1.7206506356        2.8159511913       -2.7987116101
 H          1.5196207319        4.2855318611       -1.8265927738
 H         -0.8950357406        5.0711264868        1.4340392094
 H         -0.6296490820        3.4920230557        2.1907512289
 H          1.1531138494        4.8993034906        0.1618206112
 H          1.5160519758        4.4938528610        1.8509612467
 O          1.9709408604        2.1023141515        1.5796393566
 C          2.4984487167        0.8236835373        1.4128484004
 O          2.7624439744        0.2597110276        2.4906822485
 O          2.4316765364        0.7152573004       -2.2010205967
 C          3.2429003033       -1.0189096808       -0.2051359743
 C          2.1126070427       -1.9100448051       -0.6605808903
 C          2.2784253121       -2.8293347871       -1.6901417769
 C          1.2185600185       -3.6143914602       -2.1083149498
 C         -0.0332541309       -3.4715150659       -1.5367189072
 C         -0.2101717123       -2.5488713737       -0.5131276078
 C          0.8664796566       -1.8005276924       -0.0634895918
 H          0.7140257542       -1.0918048464        0.7379701905
 N         -1.4693843279       -2.3288737616        0.0778234256
 S         -1.8608660226       -0.6886256933        0.2791980058
 O         -1.4183222503        0.0549528292       -0.8766859742
 O         -1.3767750599       -0.2471397150        1.5630918846
 C         -3.6418402055       -0.7727207178        0.3161768458
 C         -4.2548428241       -1.2476262239        1.4605212252
 C         -5.6365371056       -1.3496064805        1.4863958258
 C         -6.3777289400       -0.9772452234        0.3743461266
 C         -5.7484738885       -0.4990239074       -0.7650233670
 C         -4.3662746646       -0.3963888454       -0.7985090142
 H         -3.8321531253       -0.0251520399       -1.6584613879
 H         -6.3269016616       -0.2060806550       -1.6262633636
 H         -7.4529819149       -1.0574990572        0.3975428011
 H         -6.1291962671       -1.7178244064        2.3717355588
 H         -3.6371281863       -1.5148608520        2.3020977705
 H         -2.2112841305       -2.8185150567       -0.4060577189
 H         -0.8688278998       -4.0587576098       -1.8865310927
 H          1.3607838670       -4.3257689614       -2.9075846857
 H          3.2372531545       -2.9069847426       -2.1813732558
 H          3.9112472729       -0.8805803368       -1.0721859493
 C          4.0645035907       -1.6453814776        0.9092703360
 C          3.5074427746       -2.6737468699        1.8426121751
 C          4.5236493050       -3.0706218120        0.8166747033
 H          5.5236353628       -3.3068084164        1.1470544956
 H          4.1813806667       -3.6583692818       -0.0208776680
 H          3.7975940335       -2.6171275201        2.8802316099
 H          2.4831262585       -2.9821031399        1.6968195274
 H          4.7632133222       -0.9374533860        1.3411305178
