  62
        -98.93977371
 C         -1.3133057187       -1.4132388411        0.3492003391
 C         -1.5609631392       -0.5332121006       -0.7288977304
 C         -2.4909715999        0.5839906286       -0.4692118197
 C         -3.0310235201        0.7342306574        0.7542512304
 C         -3.9532724609        1.7961616764        1.3163404011
 C         -4.6981193415        2.7563863966        0.3923699717
 C         -5.7652473310        2.1020292264       -0.4848822789
 H         -6.1520377414        2.8569391167       -1.1729639884
 H         -6.5916554108        1.7813839354        0.1544472908
 C         -5.3074044801        0.8864276473       -1.2871782097
 H         -6.1659151298        0.5192963371       -1.8561522400
 H         -5.0099723196        0.0872628070       -0.6051523402
 C         -4.1722411401        1.1440666888       -2.2761009594
 H         -4.4461324906        1.9616020090       -2.9459430789
 H         -4.0527881995        0.2417807793       -2.8821184000
 C         -2.8055033904        1.4628413092       -1.6461961191
 H         -2.7318918812        2.5142552091       -1.3779488383
 H         -2.0349734402        1.2627382403       -2.3965898091
 H         -3.9959027618        3.3179351474       -0.2170201279
 H         -5.2024915020        3.4802957958        1.0381930921
 H         -4.6804819206        1.2599429055        1.9340761006
 H         -3.3416085014        2.3873497863        2.0068927815
 O         -2.7384417796       -0.1238726931        1.7734347598
 C         -1.9010402389       -1.2076739624        1.6011432691
 O         -1.7606344485       -1.9098297630        2.6209044387
 H          1.0458136114       -1.2032270282       -1.5473395306
 C          1.6236265914       -1.4288581484       -0.6638537307
 C          1.0441578219       -2.1679509695        0.3576168887
 C          1.7918646619       -2.4179567298        1.5024660286
 C          3.0855147516       -1.9392831790        1.6197165891
 C          3.6536839612       -1.1886811180        0.6057904696
 C          2.9098676011       -0.9285796477       -0.5373849002
 N          3.4526234806       -0.1023472466       -1.5460929596
 S          3.8662421795        1.4341231733       -1.0141295585
 O          3.7266554891        2.3014550140       -2.1621510579
 O          5.1775625695        1.3894374038       -0.4169975984
 C          2.6513164992        1.8241661016        0.2357650717
 C          3.0351509490        1.9062150010        1.5587267117
 C          2.0695664688        2.1391511396        2.5244806318
 C          0.7420447787        2.2822814090        2.1524462218
 C          0.3729673689        2.2038541297        0.8187398317
 C          1.3335574491        1.9670262910       -0.1505813484
 H          1.0687400393        1.8924591715       -1.1935289784
 H         -0.6612298412        2.3061256092        0.5296262217
 H         -0.0123738915        2.4514724280        2.9049047219
 H          2.3519567386        2.2010217791        3.5630199919
 H          4.0774501891        1.7857171015        1.8046114817
 H          2.8459241906       -0.0298217564       -2.3514879996
 H          4.6503017909       -0.7856155873        0.6868684300
 H          3.6536199217       -2.1434693893        2.5142486090
 H          1.3428610322       -2.9742389007        2.3123941882
 C         -0.3917160278       -2.6216587804        0.2534793783
 H         -0.6154393375       -3.2336186212        1.1370032579
 C         -0.6374212872       -3.4613862998       -0.9840014123
 C         -0.1830158562       -4.8886535094       -0.9931150833
 C         -1.6455432764       -4.5677047205       -0.9275451432
 H         -2.2562291862       -4.7531886203       -1.7984941633
 H         -2.1616981464       -4.7273583415        0.0081851667
 H          0.2920599840       -5.2678647897       -0.1009959035
 H          0.2138196242       -5.2973703785       -1.9097048935
 H         -0.5683437674       -2.9052499591       -1.9091406519
 O         -1.0407128590       -0.6419104994       -1.8720104004
