  62
        -98.94722733
 C         -0.8830865594       -1.5894303221       -0.8475454187
 C         -2.1750100494       -1.6088618919       -0.2609264787
 C         -3.0239319997       -0.4400700623       -0.5066138697
 C         -2.5570642899        0.5720450672       -1.2586270906
 C         -3.2835757902        1.8497198367       -1.5795922018
 C         -3.1667719804        2.9095560877       -0.4752929927
 C         -4.0128058704        2.6427909386        0.7702269675
 H         -4.0328603906        3.5695937591        1.3473788467
 H         -5.0387260703        2.4191465182        0.4743435077
 C         -3.4740792001        1.5200851195        1.6682774585
 H         -2.4223349101        1.3348921296        1.4335441187
 H         -3.5066144002        1.8449392505        2.7114959583
 C         -4.2519457998        0.2061756393        1.5828964897
 H         -5.2615726299        0.3536954594        1.9745400596
 H         -3.7474337897       -0.5276827900        2.2168083303
 C         -4.3595898297       -0.3827115920        0.1707445902
 H         -5.0633210698        0.1977435074       -0.4258855803
 H         -4.7325755195       -1.4066285520        0.2565095711
 H         -3.4747883506        3.8669062173       -0.9029523335
 H         -2.1182568004        2.9956905482       -0.1770024028
 H         -2.8321253703        2.2464264160       -2.4915838021
 H         -4.3356165901        1.6398393163       -1.7750796816
 O         -1.3336628299        0.5378723769       -1.8420691906
 C         -0.4522042597       -0.5133254127       -1.6240309297
 O          0.6483570503       -0.3527669030       -2.1881460098
 O         -2.5993222392       -2.5685724413        0.4392513421
 C          0.0405151908       -2.7364039616       -0.4726806477
 C          0.8005074307       -2.3621252603        0.7800148320
 C          0.9000138109       -3.2300528693        1.8607149627
 C          1.5371621408       -2.8329176982        3.0235502424
 C          2.0482407805       -1.5529271280        3.1468921313
 C          1.9547366804       -0.6799620489        2.0694446605
 C          1.3753352304       -1.1046596301        0.8849867609
 H          1.3322652103       -0.4230742208        0.0516725603
 N          2.4206928801        0.6413683412        2.1422343593
 S          1.5234584698        1.8443236404        1.3878967283
 O          1.8603101795        3.0510274011        2.1192322872
 O          0.1164187799        1.5194864700        1.3430637085
 C          2.2017355398        1.9867555991       -0.2495247919
 C          3.5222572699        1.6547294692       -0.4741252816
 C          4.0461457098        1.8272391882       -1.7447777517
 C          3.2489078697        2.3320987171       -2.7601410422
 C          1.9267907396        2.6653315970       -2.5162542325
 C          1.3964191397        2.4924526380       -1.2487125523
 H          0.3656930896        2.7196289780       -1.0249180725
 H          1.3014996296        3.0463021962       -3.3077230528
 H          3.6573086897        2.4603065263       -3.7503036523
 H          5.0729412999        1.5623957582       -1.9405561415
 H          4.1109695599        1.2562711800        0.3355702888
 H          2.7477746700        0.9349648921        3.0513830091
 H          2.5045296005       -1.2275888370        4.0693873210
 H          1.6093829210       -3.5166720174        3.8557244130
 H          0.4545478311       -4.2115296095        1.7957236136
 H         -0.6195278090       -3.5784758915       -0.2216688770
 C          0.9890612709       -3.1780682823       -1.5680573473
 C          1.5196924512       -4.5793590222       -1.5527289261
 C          0.5204283211       -4.1673607533       -2.5908390264
 H          0.8501504811       -4.0450769142       -3.6112621466
 H         -0.4908181888       -4.5368133735       -2.5008253061
 H          2.5409130812       -4.7444771923       -1.8592394559
 H          1.1858746213       -5.2351253716       -0.7631038055
 H          1.6499626107       -2.3903233725       -1.9044623980
