  62
        -98.93551809
 C         -2.2259696095       -1.4316756103        0.2752657492
 C         -1.8890709597       -0.3230765003       -0.5396554808
 C         -2.9481617501        0.6896449493       -0.7307484611
 C         -4.1332262701        0.5427583689       -0.1164160313
 C         -5.3660121704        1.4071659485       -0.2127143817
 C         -5.1756676710        2.9291082985       -0.2167985118
 C         -4.0130729714        3.4378531991        0.6474251184
 H         -4.3790311918        4.2286419190        1.3048329183
 H         -3.6397396812        2.6328676093        1.2828412386
 C         -2.8610067814        4.0100125794       -0.1810946714
 H         -2.2609090718        4.6631171197        0.4569020687
 H         -3.2766742015        4.6266078792       -0.9810788615
 C         -1.9149097509        2.9740597497       -0.7862261311
 H         -1.3361662509        2.4961007200        0.0090519191
 H         -1.2121605510        3.5034654399       -1.4348768010
 C         -2.5844539803        1.8572059194       -1.6031693111
 H         -3.4450826603        2.2308055490       -2.1528072813
 H         -1.8510223600        1.4810545996       -2.3218454909
 H         -5.0387194909        3.2777749685       -1.2394934418
 H         -6.1119211913        3.3629753982        0.1387475280
 H         -5.9147851801        1.1131861382       -1.1126364318
 H         -5.9801021305        1.1188041483        0.6441482282
 O         -4.3929510599       -0.5122224111        0.7072173287
 C         -3.4624740496       -1.5110275907        0.9229935290
 O         -3.8466317395       -2.4025299408        1.7062090890
 O         -0.7785829097       -0.1708723999       -1.1094881405
 C         -1.2744605291       -2.5892948099        0.5314112496
 C          0.1040057506       -2.0891950394        0.8797481798
 C          0.3691381302       -1.6419314692        2.1703365398
 C          1.6248967299       -1.1732934587        2.5105193501
 C          2.6362685001       -1.1220143584        1.5669746503
 C          2.3704060405       -1.5382292586        0.2689001003
 C          1.1168315608       -2.0353089891       -0.0632289300
 H          0.9203977711       -2.3478635193       -1.0765939500
 N          3.3671310207       -1.4626795783       -0.7136186795
 S          4.5363056403       -0.2788722379       -0.6500778494
 O          4.9791225805       -0.1188663678       -2.0185004593
 O          5.5610495902       -0.6659315674        0.2904111209
 C          3.7699110396        1.2322770019       -0.0817087397
 C          4.5176208391        2.0581109122        0.7355528704
 C          3.9768016786        3.2608496821        1.1592066902
 C          2.6989373085        3.6180672116        0.7581720099
 C          1.9616808490        2.7780646212       -0.0610733302
 C          2.4959594796        1.5729391914       -0.4902940400
 H          1.9144566999        0.9091203111       -1.1107352401
 H          0.9645738490        3.0476321108       -0.3688825305
 H          2.2727367281        4.5529844514        1.0863932797
 H          4.5509531982        3.9120870323        1.7984706403
 H          5.5036939192        1.7358164126        1.0291730607
 H          3.0367768510       -1.6173745285       -1.6542187196
 H          3.6230766499       -0.7690846580        1.8205874805
 H          1.8201818896       -0.8416025385        3.5189475901
 H         -0.4233743200       -1.6669826694        2.9057045597
 H         -1.6828176991       -3.0979935000        1.4190417495
 C         -1.2491242985       -3.6237844000       -0.5865378103
 C         -2.5183174082       -4.0396267706       -1.2665879006
 C         -1.4758618683       -3.2783113002       -2.0263889904
 H         -0.9014881880       -3.8058667201       -2.7743168302
 H         -1.6733285786       -2.2476090703       -2.2758123306
 H         -2.6636551578       -5.0850751806       -1.4930337905
 H         -3.4249620385       -3.5242941909       -0.9840100708
 H         -0.5305191583       -4.4126239597       -0.3846554501
