  62
        -98.93761558
 C         -1.1667941736       -0.8659229987        0.6464681149
 C         -1.9173227804       -0.6306640408       -0.5294278289
 C         -2.9146911526        0.4562134735       -0.4681809284
 C         -3.0128120448        1.2084219399        0.6425651783
 C         -3.8881089450        2.4004994791        0.9701065071
 C         -5.0882672340        2.7537907725        0.0956376335
 C         -6.2324106443        1.7412323507        0.1399837717
 H         -6.6973198380        1.7867492938        1.1280219882
 H         -6.9823734077        2.0417245773       -0.5948288546
 C         -5.8379497194        0.2891274499       -0.1171697730
 H         -5.1604505732       -0.0506318234        0.6688204780
 H         -6.7430125902       -0.3202883817       -0.0480576888
 C         -5.1972830257        0.0167384415       -1.4766645427
 H         -5.1163487795       -1.0675466974       -1.5908684864
 H         -5.8477262451        0.3884619793       -2.2706712644
 C         -3.7915571296        0.6093208210       -1.6776205253
 H         -3.3003684455        0.0541315226       -2.4824255847
 H         -3.8398505220        1.6510637281       -1.9864741557
 H         -4.7688526825        2.9260592891       -0.9280737706
 H         -5.4749416377        3.7057891431        0.4697411803
 H         -4.2283385449        2.2466916632        1.9994449881
 H         -3.2112713952        3.2623299972        0.9953938926
 O         -2.2024603462        1.0003851137        1.7223782163
 C         -1.2664621835       -0.0169786083        1.7490854152
 O         -0.5863246881       -0.0576001391        2.7949264045
 H          0.9705048202        0.2875831569       -0.1879324479
 C          1.3138850781       -0.5571880792       -0.7651989650
 C          0.8246458713       -1.8235973358       -0.4727319991
 C          1.2409625564       -2.8908437826       -1.2568550871
 C          2.1195840618       -2.6821119805       -2.3067435724
 C          2.6159091163       -1.4214816385       -2.5838321702
 C          2.2010680457       -0.3458218380       -1.8059464838
 N          2.6678023407        0.9538615374       -2.0500671461
 S          2.8479531855        2.0298230647       -0.7869387130
 O          1.5645665263        2.5256056349       -0.3536944167
 O          3.7648229974        3.0257664789       -1.3003955278
 C          3.6445555566        1.0969200775        0.5092931610
 C          2.9782636781        0.7975659305        1.6796252152
 C          3.6240118602        0.0368923467        2.6422704560
 C          4.9179215178       -0.4072781311        2.4211055807
 C          5.5782862910       -0.0905574010        1.2432709249
 C          4.9370232033        0.6660898155        0.2770415314
 H          5.4212586482        0.9423606205       -0.6453717404
 H          6.5866296704       -0.4328296707        1.0756674181
 H          5.4134287587       -1.0010174085        3.1728773491
 H          3.1017218249       -0.2060713618        3.5541690114
 H          1.9689719946        1.1498744872        1.8291970648
 H          3.4060278642        1.0300329583       -2.7333338577
 H          3.3032046760       -1.2645564963       -3.4007269150
 H          2.4277535922       -3.5177774216       -2.9164998753
 H          0.8637313729       -3.8812239838       -1.0625760895
 C         -0.1000477782       -1.9445885883        0.7148958828
 H          0.4934221907       -1.6873273396        1.6090090592
 C         -0.6280887030       -3.3535686699        0.9422736194
 C         -1.9981576841       -3.5895055038        1.5033557663
 C         -1.6953841873       -3.9620552023        0.0847381158
 H         -1.6173509675       -5.0110751066       -0.1616957814
 H         -2.1026927458       -3.3533031103       -0.7060984151
 H         -2.1262326890       -4.3773997514        2.2306665480
 H         -2.6213720542       -2.7247261230        1.6818152963
 H          0.1500604094       -4.0236916574        1.2945006933
 O         -1.7713031246       -1.2845694799       -1.5942086090
