  62
        -98.93496443
 C          2.2029121305        0.6399854196        0.0414114393
 C          3.4998735806        0.9993652899        0.4753288387
 C          4.5133875905       -0.0696969102        0.4891939398
 C          4.1659318602       -1.3122217306        0.1047728413
 C          4.9609757900       -2.6008374808        0.0620284526
 C          6.4834631501       -2.5852392108        0.1723800524
 C          7.2038865700       -1.9443691923       -1.0131962785
 H          8.2704564300       -1.9018856422       -0.7821237887
 H          7.0778287097       -2.5897307233       -1.8861632477
 C          6.7229146901       -0.5480694427       -1.4000263900
 H          7.3170544900       -0.2150920038       -2.2553792505
 H          5.6834551901       -0.5965639029       -1.7311607298
 C          6.8468122804        0.5123382685       -0.3077256913
 H          6.6257791605        1.4808747481       -0.7640479823
 H          7.8740832805        0.5426892488        0.0603131985
 C          5.9003655906        0.3408452101        0.8932718091
 H          5.8000965608        1.3125859307        1.3852736380
 H          6.3084865406       -0.3540679191        1.6232021398
 H          6.8010060999       -3.6301776508        0.2254995335
 H          6.7888124503       -2.1159951498        1.1028322818
 H          4.5610253401       -3.2213806298        0.8717113834
 H          4.6742666698       -3.0945214418       -0.8719935367
 O          2.8944269601       -1.6141998209       -0.2940725482
 C          1.8888401203       -0.6621144508       -0.3419329791
 O          0.7908423301       -1.0993592111       -0.7371663684
 O          3.7997419309        2.1650730603        0.8491184873
 C          1.1167690207        1.7010932697        0.0124748283
 C          0.0101403908        1.2981581810        0.9549720389
 C          0.3102444809        1.1726153825        2.3098585490
 C         -0.6554506090        0.7750892337        3.2127502296
 C         -1.9379913491        0.4844348534        2.7808417802
 C         -2.2503882193        0.6126460519        1.4331491301
 C         -1.2811494794        1.0303321607        0.5302231094
 H         -1.5453284495        1.1122330895       -0.5097077206
 N         -3.5631835794        0.3636917215        0.9847936106
 S         -3.8087560497       -0.5574299400       -0.4114624483
 O         -3.2469336899       -1.8799375099       -0.2452635069
 O         -3.3816421398        0.1954927486       -1.5619126793
 C         -5.5909557497       -0.6530059798       -0.3924192379
 C         -6.3157735997        0.4353713798       -0.8393835991
 C         -7.6999258297        0.3778989001       -0.8071548288
 C         -8.3335131297       -0.7602134493       -0.3303785174
 C         -7.5931773898       -1.8453691589        0.1134877738
 C         -6.2082744898       -1.7935661391        0.0845659135
 H         -5.5915731499       -2.6162363088        0.4094668643
 H         -8.0878600799       -2.7302920184        0.4802397149
 H         -9.4109383198       -0.8030600491       -0.3073711972
 H         -8.2788098896        1.2186018297       -1.1539566997
 H         -5.7799169796        1.2938562993       -1.2089606002
 H         -4.1411323593       -0.0134236075        1.7259117911
 H         -2.6916387590        0.1615316943        3.4835119007
 H         -0.4083335688        0.6810224749        4.2595743497
 H          1.3178178610        1.3853699628        2.6408508786
 H          1.5896347109        2.6123813501        0.4071786971
 C          0.6531094605        1.9678667682       -1.4028166020
 C          0.0035417306        3.2759170079       -1.7386685234
 C          1.3859762305        2.9766438071       -2.2333343832
 H          1.5269921703        2.7730574759       -3.2842457430
 H          2.2171656806        3.4893804275       -1.7716051640
 H         -0.8101001295        3.2762289972       -2.4480808032
 H         -0.1049777592        3.9960035888       -0.9418117342
 H          0.2915802703        1.0763982676       -1.9043645209
