  62
        -98.94566496
 C         -0.6924713958       -1.8146667140        0.0568554523
 C         -1.9233903410       -1.7383247858        0.7545381641
 C         -2.9286746862       -0.8280029785        0.1969214215
 C         -2.6346903234       -0.1010340907       -0.8961686603
 C         -3.5756438034        0.8251931976       -1.6199581329
 C         -3.6809243283        2.2336706935       -1.0204651619
 C         -4.4202887272        2.3244304802        0.3144803407
 H         -4.5996352996        3.3837190740        0.5098561418
 H         -5.3935725061        1.8403526956        0.2261323301
 C         -3.6555277415        1.7284252216        1.5050959699
 H         -3.7015199697        2.4182548731        2.3514620106
 H         -2.5969379057        1.6182846113        1.2534116778
 C         -4.1942261675        0.3821360889        1.9898305441
 H         -3.5503713785        0.0292942840        2.7998908446
 H         -5.2009703935        0.5149206019        2.3932678257
 C         -4.2409936715       -0.7065446233        0.9103074268
 H         -4.4433590243       -1.6631526012        1.3988123100
 H         -5.0429243840       -0.4985232059        0.2017366146
 H         -2.6760745736        2.6428636479       -0.8999127107
 H         -4.2094016034        2.8570766795       -1.7457243306
 H         -4.5681547777        0.3739921516       -1.6559212365
 H         -3.1980589338        0.9127343459       -2.6409418900
 O         -1.4243016838       -0.1639052370       -1.5089489631
 C         -0.4165492924       -0.9999417391       -1.0425073006
 O          0.6426247776       -0.9213887411       -1.6904115675
 O         -2.1742899011       -2.4114664998        1.7910945778
 C          0.3667458279       -2.7546559211        0.6002717690
 C          1.7052926965       -2.0636744761        0.6889748450
 C          2.9048691103       -2.6585811722        0.3187431629
 C          4.0993105085       -1.9712492811        0.4489605591
 C          4.1232887060       -0.6745397253        0.9264399759
 C          2.9270075749       -0.0674160599        1.2924353271
 C          1.7387584643       -0.7699184981        1.1948594416
 H          0.8199857993       -0.2876766089        1.4959090247
 N          2.9019870756        1.2573227556        1.7643308036
 S          1.7043205104        2.2929534092        1.2425537360
 O          2.2153810586        3.6121941047        1.5602963773
 O          0.4420617879        1.9583474787        1.8559763240
 C          1.5757779764        2.1436194869       -0.5303803946
 C          2.6762684882        1.8392087598       -1.3041229643
 C          2.5306565204        1.7905836130       -2.6807662225
 C          1.3013594572        2.0592432588       -3.2593407101
 C          0.2085196278        2.3769053730       -2.4701777365
 C          0.3477796257        2.4175669002       -1.0937573191
 H         -0.4769665301        2.6405815293       -0.4340642912
 H         -0.7518133536        2.5779434425       -2.9180316133
 H          1.1910151435        2.0120652585       -4.3313364962
 H          3.3771056612        1.5341504792       -3.2973332729
 H          3.6258860710        1.6281749875       -0.8407485737
 H          3.7990866805        1.7208788887        1.7804669969
 H          5.0536100543       -0.1339225280        1.0148427653
 H          5.0233822261       -2.4483117763        0.1602769261
 H          2.9083659444       -3.6574945570       -0.0843907546
 H          0.0354125214       -2.9669431928        1.6318602777
 C          0.4297987118       -4.0966753436       -0.1183101606
 C         -0.6927643462       -4.5719899296       -0.9903469368
 C          0.6182831534       -4.1856894224       -1.6024632379
 H          1.2499732142       -4.9688960899       -1.9952455023
 H          0.6756726040       -3.2569918066       -2.1479693094
 H         -0.9590180982       -5.6179125153       -0.9533104800
 H         -1.5370343351       -3.9121769965       -1.1295903927
 H          0.9158315197       -4.8598309415        0.4815666320
