  62
        -98.94838302
 C         -1.3145889882       -1.5604582580        0.2078473892
 C         -1.6667595097       -0.6111222212        1.1969510465
 C         -2.9094143314        0.1305866301        0.9629361826
 C         -3.6256730920       -0.1049743454       -0.1515575139
 C         -4.9408547767        0.5322255306       -0.5105079713
 C         -4.8117259435        1.9001350575       -1.1932902159
 C         -4.3837915664        3.0452002319       -0.2748883766
 H         -4.5483107206        3.9752012321       -0.8227644868
 H         -5.0284534987        3.0663430896        0.6046077904
 C         -2.9141631545        2.9876043526        0.1633123483
 H         -2.4588116877        3.9754550659        0.0595991348
 H         -2.3514284891        2.3237198117       -0.4975996530
 C         -2.6920429831        2.5429211968        1.6086270004
 H         -3.1013346160        3.2921355625        2.2907799102
 H         -1.6122816598        2.4899219488        1.7724386881
 C         -3.3030238775        1.1795764740        1.9583914608
 H         -2.9192658459        0.8734106717        2.9349359021
 H         -4.3884540177        1.2605824780        2.0183527894
 H         -5.7880269228        2.1468562584       -1.6172414199
 H         -4.1013408904        1.8139588154       -2.0189705046
 H         -5.5561606480        0.6285867675        0.3846648999
 H         -5.4370207701       -0.1518236518       -1.2025358888
 O         -3.2352385427       -1.0001678246       -1.0972555607
 C         -2.0584902939       -1.7239669057       -0.9601355354
 O         -1.8009887900       -2.4687163279       -1.9252413768
 O         -0.9767563419       -0.4012570158        2.2315918691
 C         -0.0386268578       -2.3618592631        0.3835900044
 C          0.9897034041       -1.9543839515       -0.6439050611
 C          1.8445029020       -2.8497981912       -1.2744815110
 C          2.7882277781       -2.3945108714       -2.1794542481
 C          2.9225314801       -1.0451624320       -2.4524277254
 C          2.0752646450       -0.1409113466       -1.8221587197
 C          1.1156514736       -0.6037882435       -0.9373127853
 H          0.4439211899        0.1052776537       -0.4794894336
 N          2.1735365425        1.2394348175       -2.0531492542
 S          1.9162645590        2.2947087878       -0.7782575201
 O          0.5095852611        2.4019828844       -0.4901028890
 O          2.5682931911        3.5185744143       -1.1959520198
 C          2.8109006235        1.5772997466        0.5887943168
 C          4.1909682408        1.6112321000        0.5166518713
 C          4.9340462070        1.0222076230        1.5253312030
 C          4.2870545509        0.4048963260        2.5856150570
 C          2.9030984603        0.3848457980        2.6468800745
 C          2.1526442634        0.9756176686        1.6412460434
 H          1.0740690213        0.9616545941        1.6732263082
 H          2.3908243639       -0.0916588100        3.4676748755
 H          4.8632547392       -0.0603390030        3.3698097595
 H          6.0109772625        1.0426534776        1.4814792942
 H          4.6553011498        2.1117607816       -0.3175635247
 H          2.9546593344        1.5226511765       -2.6260133436
 H          3.6661451225       -0.6932323515       -3.1507564748
 H          3.4381513130       -3.1015570014       -2.6720573112
 H          1.7668275395       -3.9037155705       -1.0639519232
 H          0.3518568048       -2.0686194962        1.3707967018
 C         -0.3267794463       -3.8481530006        0.3978875133
 C          0.5263952522       -4.7757995595        1.2092037305
 C         -0.8718366058       -4.4665769780        1.6494792006
 H         -1.6264940108       -5.2332862337        1.5589425347
 H         -1.0096494690       -3.8189799139        2.5031701389
 H          0.7317741856       -5.7609570183        0.8183570431
 H          1.3400640517       -4.3440083136        1.7719745427
 H         -0.7195419140       -4.2045983950       -0.5473867430
