  62
        -98.94569518
 C         -1.4485586393       -1.2820741206        0.1749220710
 C         -1.5590120895       -0.0216248714       -0.4639085504
 C         -2.6759270098        0.8240324488       -0.0191744215
 C         -3.4961930499        0.4036214697        0.9591318588
 C         -4.6567165002        1.1675530700        1.5370345278
 C         -5.9527474700        1.0484753488        0.7232287477
 C         -5.9646043800        1.8140414673       -0.6006134532
 H         -6.9975665999        1.8254743467       -0.9541645934
 H         -5.6699133303        2.8487653276       -0.4225302143
 C         -5.0755391896        1.2043229464       -1.6934317524
 H         -4.8291283694        0.1736465467       -1.4285563612
 H         -5.6279434594        1.1705065652       -2.6351210824
 C         -3.7784358098        1.9699217564       -1.9560492730
 H         -4.0107058999        2.9621564459       -2.3493594341
 H         -3.2089050195        1.4301148557       -2.7165567123
 C         -2.8837879300        2.1321943880       -0.7205089630
 H         -1.9039239101        2.4952107279       -1.0419882432
 H         -3.3128826003        2.8648907186       -0.0368008639
 H         -6.1497080397       -0.0093434115        0.5344451488
 H         -6.7638758902        1.4314701393        1.3468488471
 H         -4.8352190103        0.7535765111        2.5320197482
 H         -4.3855620105        2.2186430902        1.6434291466
 O         -3.3444664097       -0.8031983896        1.5674523002
 C         -2.3339508694       -1.6686874998        1.1847838513
 O         -2.3280601692       -2.7503672291        1.8086973925
 O         -0.7815770495        0.3985143778       -1.3599655607
 C         -0.3657637790       -2.2943355407       -0.1509758576
 C          0.9158256108       -2.0462198995        0.6139902423
 C          1.7569374210       -3.1114776990        0.9215218037
 C          2.9384232908       -2.9019541279        1.6072324736
 C          3.3124654504       -1.6260401774        1.9901559523
 C          2.4798839102       -0.5546547180        1.6904563710
 C          1.2898721504       -0.7716120790        1.0079931410
 H          0.6511180402        0.0717613706        0.8017633399
 N          2.8209670198        0.7482560726        2.0831757896
 S          2.5693483897        2.0328231213        1.0367941181
 O          3.4140046493        3.0833497421        1.5674547771
 O          1.1655647796        2.3408757509        0.9499534375
 C          3.2325190701        1.4657546598       -0.5181991911
 C          2.4062986604        0.9847411385       -1.5123634608
 C          2.9846773108        0.4882784374       -2.6717940801
 C          4.3624731908        0.4797097176       -2.8164309898
 C          5.1776222305        0.9730039789       -1.8083861202
 C          4.6091515701        1.4671361100       -0.6469295209
 H          5.2043243899        1.8711472811        0.1560597288
 H          6.2495723205        0.9707042390       -1.9236774800
 H          4.8025874710        0.0889562467       -3.7203788693
 H          2.3467750510        0.1091177363       -3.4545996598
 H          1.3352796004        0.9985934084       -1.3806919610
 H          3.7190495897        0.8254737133        2.5382689497
 H          4.2332900703       -1.4592418066        2.5276857023
 H          3.5769529510       -3.7385245575        1.8458349847
 H          1.4707037113       -4.1109701994        0.6325270047
 H         -0.7599375188       -3.2664259205        0.1787148534
 C         -0.0586363487       -2.3823304323       -1.6355346875
 C          0.3331497818       -3.6927840029       -2.2455070060
 C         -1.0109711183       -3.1000206335       -2.5423107469
 H         -1.1974446183       -2.6881565747       -3.5225293774
 H         -1.8804233883       -3.5555502833       -2.0899188165
 H          1.0789348219       -3.6928348135       -3.0252191058
 H          0.3650476619       -4.5613453221       -1.6058024350
 H          0.4098976311       -1.4871342126       -2.0222038884
