  62
        -98.93602172
 C         -1.6919285398       -0.0389186992        0.8734962391
 C         -2.9954885098        0.1694155710        1.3900140390
 C         -4.0905924498       -0.4853869092        0.6683864992
 C         -3.8173586398       -1.2371337497       -0.4133134005
 C         -4.8234071698       -1.9782125100       -1.2518425303
 C         -5.5051205597       -1.1118338604       -2.3200145006
 C         -6.5255266597       -0.1040128801       -1.7890768711
 H         -7.0805708696        0.2736587895       -2.6501710913
 H         -7.2385434497       -0.6162349498       -1.1422853509
 C         -5.9102488797        1.0859212701       -1.0393137915
 H         -4.8459348797        1.1555341100       -1.2761640315
 H         -6.3752305096        2.0128957400       -1.3826396619
 C         -6.0759163497        1.0314239608        0.4793860785
 H         -5.5706656297        1.8992174509        0.9110912281
 H         -7.1356653998        1.0975922009        0.7356729684
 C         -5.4928649398       -0.2287460890        1.1318013790
 H         -6.1271268999       -1.0894229191        0.9207908193
 H         -5.4624805799       -0.0720957386        2.2128873389
 H         -4.7340907397       -0.5847766006       -2.8866945008
 H         -6.0193280697       -1.7875666306       -3.0074007504
 H         -5.5806208798       -2.4246995297       -0.6066993601
 H         -4.2784957598       -2.7793734202       -1.7554220299
 O         -2.5522729798       -1.4280709999       -0.8681442304
 C         -1.4571293698       -0.8304117397       -0.2520103506
 O         -0.3722480998       -1.0892612100       -0.8003053404
 O         -3.2312897998        0.8730146814        2.4093730487
 C         -0.5388199798        0.6573167810        1.5869783989
 C          0.2388084303        1.4732291106        0.5875559486
 C         -0.3304496497        2.6875385904        0.1985036181
 C          0.2682119904        3.4914439700       -0.7502543922
 C          1.4752263504        3.1215248097       -1.3185207620
 C          2.0525639104        1.9178470999       -0.9420062015
 C          1.4275527003        1.0947056303       -0.0139165812
 H          1.8873630902        0.1487473503        0.2009567792
 N          3.2777305604        1.4970731596       -1.4839320013
 S          4.4271936203        0.8676806800       -0.4416241210
 O          4.3056061603        1.4413016605        0.8792347988
 O          5.6919361703        1.0897756296       -1.1120870810
 C          4.1165603202       -0.8830052100       -0.3806838803
 C          4.2935378901       -1.5493937295        0.8154989100
 C          4.0971392601       -2.9204397095        0.8545789605
 C          3.7318509701       -3.5974223199       -0.2981819692
 C          3.5610617802       -2.9133010404       -1.4921763695
 C          3.7581144902       -1.5428682304       -1.5389783000
 H          3.6269202803       -0.9799519008       -2.4480203203
 H          3.2708480402       -3.4424224008       -2.3856050293
 H          3.5754899701       -4.6642346599       -0.2659034588
 H          4.2249001400       -3.4519360791        1.7837139608
 H          4.5654499101       -0.9834155392        1.6918028598
 H          3.6906376504        2.1341253193       -2.1496006415
 H          1.9594732005        3.7533363994       -2.0478545423
 H         -0.1983706295        4.4209793499       -1.0401577626
 H         -1.2672742697        2.9890267406        0.6475678679
 H         -1.0398682598        1.3803783913        2.2511696586
 C          0.1704690001       -0.3101724887        2.5246389393
 C          1.0526083001       -1.4448657689        2.1027789198
 C          1.6324020701       -0.2829525486        2.8549664994
 H          1.9131811600       -0.4436794682        3.8858645794
 H          2.2728657101        0.4159123912        2.3390557991
 H          0.9409113900       -2.3835773986        2.6269073302
 H          1.2602740101       -1.5707373493        1.0526442899
 H         -0.4913324699       -0.5368334383        3.3580021394
