  62
        -98.94088257
 C         -2.6968994877       -0.2065230428       -0.2244968494
 C         -2.2779234091       -1.0032479948        0.8703331618
 C         -1.8106027401       -2.3572098185        0.5293389011
 C         -1.7816020384       -2.7632162275       -0.7514037193
 C         -1.3798992605       -4.1271914807       -1.2460801741
 C          0.1331238115       -4.3207127817       -1.4101846070
 C          0.9125587843       -4.4662635992       -0.1029794838
 H          0.4370644711       -5.2219598205        0.5234259340
 H          1.9081068370       -4.8329369682       -0.3605989022
 C          1.0606571977       -3.1581244080        0.6852163475
 H          2.0925422820       -3.0494993699        1.0299146043
 H          0.8643974903       -2.3064450073        0.0295805222
 C          0.1673307154       -3.0411500565        1.9202500118
 H          0.4773793669       -3.7743289626        2.6694195829
 H          0.3172148282       -2.0421538133        2.3389181334
 C         -1.3303752268       -3.2304281178        1.6494781755
 H         -1.5425629134       -4.2776424715        1.4311325952
 H         -1.8773383505       -2.9409206590        2.5507211382
 H          0.5331104850       -3.4757623980       -1.9758265093
 H          0.2835103247       -5.2254943868       -2.0041019996
 H         -1.7738926990       -4.8889565872       -0.5720500469
 H         -1.8512271462       -4.2497932175       -2.2238082970
 O         -2.1710034779       -1.9599166115       -1.7778281331
 C         -2.6032245615       -0.6679141617       -1.5401706845
 O         -2.9043824950       -0.0331345847       -2.5730155007
 H         -0.5941949565        1.0204014289        0.6903415354
 C         -0.7486081045        1.8741913770        0.0475442647
 C         -2.0179808400        2.1568781072       -0.4342132398
 C         -2.1895980032        3.2693110345       -1.2493900053
 C         -1.1098521221        4.0677511203       -1.5837088226
 C          0.1620108763        3.7549176431       -1.1392295035
 C          0.3426978154        2.6450716636       -0.3214187029
 N          1.6166318202        2.2766564956        0.1429128512
 S          1.9174012765        0.6115692685        0.2489433062
 O          1.3215568013       -0.0665071810       -0.8799891946
 O          1.5370828348        0.1648732839        1.5635431003
 C          3.6955084656        0.5893493935        0.1109366204
 C          4.4529539077        0.8592445969        1.2352542845
 C          5.8342095942        0.8749214555        1.1242404864
 C          6.4318747254        0.6215989246       -0.1016359406
 C          5.6589278258        0.3488694944       -1.2202800157
 C          4.2767037120        0.3334531746       -1.1163703098
 H          3.6344674847        0.1183466156       -1.9555761315
 H          6.1257083173        0.1479595822       -2.1710869225
 H          7.5070401629        0.6335852626       -0.1853036665
 H          6.4383065726        1.0829353117        1.9924689538
 H          3.9428954118        1.0389677998        2.1672481822
 H          2.3648654727        2.7666321819       -0.3288634634
 H          1.0097233887        4.3579418240       -1.4271568807
 H         -1.2555281894        4.9283526194       -2.2187839115
 H         -3.1708991417        3.4901003212       -1.6430807633
 C         -3.1663132623        1.2362058414       -0.1028795374
 H         -3.9258953349        1.3695514552       -0.8917293724
 C         -3.8287175668        1.5682757493        1.2246656512
 C         -3.1446420963        2.3455006183        2.3044364631
 C         -4.2548469939        2.9758918872        1.5217544287
 H         -5.2056404525        3.1327212858        2.0079676050
 H         -3.9890701813        3.7404124779        0.8077527099
 H         -3.3242972111        2.0455859171        3.3253136942
 H         -2.1341206880        2.6794740268        2.1246293604
 H         -4.4956304234        0.7779108807        1.5516293255
 O         -2.3065488200       -0.6424959672        2.0748272573
