  62
        -98.93656960
 C          2.4896219420        1.2773102494        0.2130290400
 C          2.6694495582        0.3946010955       -0.8787742766
 C          3.5574153576       -0.7519265235       -0.6353221493
 C          4.1402344973       -0.9016731055        0.5677174024
 C          5.1129754461       -1.9789255218        0.9696933228
 C          4.5620460177       -3.4177436629        1.0034174870
 C          4.7872324786       -4.2119656466       -0.2892150814
 H          5.6421816994       -3.7877248886       -0.8169533682
 H          5.0575920906       -5.2370785880       -0.0279086176
 C          3.5888444981       -4.2946706661       -1.2395708723
 H          3.9515591327       -4.6581249341       -2.2033575715
 H          2.8798669479       -5.0319450005       -0.8559552658
 C          2.8197208470       -2.9917820274       -1.4601212138
 H          2.2004595431       -2.7774868647       -0.5854238081
 H          2.1311528044       -3.1384778209       -2.2944666985
 C          3.7048866405       -1.7609362363       -1.7366996615
 H          4.7471899305       -2.0539690643       -1.8525619847
 H          3.3794726760       -1.2679715461       -2.6548466898
 H          5.0782750660       -3.9341303334        1.8143393589
 H          3.5027172121       -3.3959946571        1.2587444549
 H          5.9762849655       -1.9375460204        0.3017729546
 H          5.4524549061       -1.7043013728        1.9705791279
 O          3.9331766668       -0.0301472569        1.5944185841
 C          3.0956985698        1.0637224259        1.4496834776
 O          2.9713284329        1.7574756864        2.4808504996
 H          0.2126176416        0.4576098700        1.1072116365
 C         -0.3730966041        0.9721472462        0.3537789288
 C          0.1867301287        2.0565448900       -0.3106703245
 C         -0.5838108868        2.7183458536       -1.2575458669
 C         -1.8687991826        2.2882339394       -1.5411559397
 C         -2.4128295397        1.1957377271       -0.8919319704
 C         -1.6561430192        0.5337536520        0.0662750431
 N         -2.1973370258       -0.5847950999        0.7270882835
 S         -3.6854218186       -0.3978319817        1.4852936686
 O         -3.8904607664        0.9658226542        1.9165211466
 O         -3.7124736667       -1.4099108905        2.5190526909
 C         -4.8668589702       -0.8248025135        0.2241236164
 C         -4.7513990822       -2.0592121480       -0.3845895001
 C         -5.6698241869       -2.4118062828       -1.3604347003
 C         -6.6836021702       -1.5306392919       -1.7065906848
 C         -6.7872731409       -0.2961691367       -1.0839956574
 C         -5.8711155084        0.0633646974       -0.1076168506
 H         -5.9078708335        1.0141777204        0.3996440542
 H         -7.5759251604        0.3872570045       -1.3548127984
 H         -7.3969126447       -1.8081852448       -2.4665099645
 H         -5.5919137889       -3.3705003600       -1.8474784553
 H         -3.9508433144       -2.7147552670       -0.0845992208
 H         -1.5444155730       -1.0383318349        1.3498379363
 H         -3.4095412065        0.8526774216       -1.1164999214
 H         -2.4534286903        2.8093870837       -2.2836889805
 H         -0.1769701931        3.5704968235       -1.7765791656
 C          1.5853089983        2.4863554098        0.0641519857
 H          1.5375213729        2.9553422472        1.0587372259
 C          2.1947538031        3.4733158069       -0.9105007140
 C          1.9629540959        4.9442624455       -0.7446577305
 C          3.3071233999        4.3580649834       -0.4368093836
 H          4.1273233095        4.5610993883       -1.1087900428
 H          3.6037403621        4.2680291696        0.5984985528
 H          1.3493881786        5.2642203672        0.0841176577
 H          1.8635824563        5.5541839421       -1.6298787238
 H          2.2665806438        3.0729574447       -1.9150683685
 O          2.1230722608        0.5550544588       -2.0001155729
