  62
        -98.94564434
 C         -1.5000822212       -1.3121030210       -0.6705736303
 C         -2.8015534621       -1.2083316367       -0.1126864895
 C         -3.5922932589       -0.0390772998       -0.5064942465
 C         -3.0727622048        0.8538137638       -1.3678334739
 C         -3.7527324910        2.0963279989       -1.8753780993
 C         -3.6268999043        3.2985779140       -0.9297266784
 C         -4.4803039582        3.2195491840        0.3368362381
 H         -4.4715613137        4.2123875111        0.7910489154
 H         -5.5121176732        2.9937215312        0.0652102006
 C         -3.9833316639        2.2006738317        1.3722796537
 H         -2.9449259965        1.9360465965        1.1548885838
 H         -3.9913468399        2.6575518654        2.3647675980
 C         -4.8173107618        0.9217766170        1.4561208924
 H         -5.8226484959        1.1636642667        1.8082861946
 H         -4.3520297278        0.2592310133        2.1905444336
 C         -4.9340814298        0.1543752639        0.1328805586
 H         -5.3462385268       -0.8349893164        0.3460911097
 H         -5.6075007030        0.6761153493       -0.5468250044
 H         -3.9262431673        4.1879273301       -1.4894637122
 H         -2.5758208234        3.4170355866       -0.6535244558
 H         -4.8062745604        1.8883684321       -2.0649159339
 H         -3.2710488995        2.3508840441       -2.8218986022
 O         -1.8366464989        0.7067218950       -1.9063299902
 C         -1.0071654888       -0.3490208636       -1.5509080882
 O          0.1051104758       -0.3056747193       -2.1117367722
 O         -3.2839141198       -2.0659781125        0.6755610331
 C         -0.6662527332       -2.4939441172       -0.2024536844
 C          0.1171279663       -2.0983608622        1.0280026707
 C         -0.0813165006       -2.7528962868        2.2372684742
 C          0.6019010188       -2.3521073198        3.3718063210
 C          1.4769605922       -1.2835415661        3.3221363481
 C          1.6850163293       -0.6214730077        2.1150431761
 C          1.0246373193       -1.0486453091        0.9729271175
 H          1.1802548219       -0.5295531512        0.0421660968
 N          2.5738570984        0.4570690787        2.0528211764
 S          2.4232490120        1.7300384847        0.9739397397
 O          3.0066855534        2.8534247440        1.6809328232
 O          1.0623295064        1.9028934288        0.5266326415
 C          3.5270093983        1.2716024618       -0.3455034640
 C          3.0515031988        0.8594700617       -1.5725670791
 C          3.9644758623        0.4969981842       -2.5528508036
 C          5.3241784616        0.5532097840       -2.2930669444
 C          5.7855573431        0.9729592677       -1.0538399042
 C          4.8807946782        1.3351533422       -0.0707997893
 H          5.1948005223        1.6798590397        0.9004003843
 H          6.8439053091        1.0178565935       -0.8534043651
 H          6.0267983067        0.2690749984       -3.0606872827
 H          3.5984001266        0.1697680465       -3.5131017845
 H          1.9884712879        0.8113292173       -1.7537986186
 H          2.9386083578        0.7612515674        2.9429311301
 H          1.9937960492       -0.9546169028        4.2109409904
 H          0.4388338409       -2.8653959218        4.3073554532
 H         -0.7932272318       -3.5632944546        2.2893336461
 H         -1.3957055949       -3.2576577784        0.1017142182
 C          0.2395688048       -3.0927799983       -1.2578781326
 C          0.6664615950       -4.5223915938       -1.1185500037
 C         -0.3069321579       -4.1312842842       -2.1889536429
 H          0.0241984708       -4.1248948173       -3.2163205436
 H         -1.3420161836       -4.4159816065       -2.0669449110
 H          1.6707684794       -4.7887300296       -1.4094206720
 H          0.2911702639       -5.0774330737       -0.2721897744
 H          0.9552561334       -2.3909339816       -1.6640735830
