  62
        -98.94408588
 C         -1.8165821496       -1.3513878238        0.1268204988
 C         -1.9844508505       -0.3499554539       -0.8602045160
 C         -3.3305853814        0.2349852457       -0.9628835374
 C         -4.3065076359       -0.1874337848       -0.1399556250
 C         -5.7005637582        0.3662852043       -0.1010748260
 C         -5.8138948994        1.5203942249        0.9047726668
 C         -4.7218066323        2.5798793649        0.7563812006
 H         -4.9223100303        3.3590193141        1.4950804655
 H         -3.7568050264        2.1363748214        1.0133382264
 C         -4.6340635017        3.2106518399       -0.6404416345
 H         -5.5599136106        3.0297246579       -1.1876934069
 H         -4.5291989654        4.2921169552       -0.5300246471
 C         -3.4478219842        2.7316639955       -1.4792584205
 H         -2.5276982002        2.8259579317       -0.8965202458
 H         -3.3552339543        3.3930594443       -2.3449601124
 C         -3.5416019322        1.2947482432       -2.0079721846
 H         -4.4982957989        1.1515272554       -2.5140018016
 H         -2.7412747872        1.1581617539       -2.7409541135
 H         -6.7937025624        1.9865726668        0.7861962809
 H         -5.7541304584        1.1074023742        1.9144302983
 H         -5.9781777564        0.7092236220       -1.0959185155
 H         -6.3793337507       -0.4333942122        0.2001144838
 O         -4.1125906489       -1.1511455994        0.7946987023
 C         -2.8758167342       -1.7505319353        0.9503531309
 O         -2.8423876227       -2.6224502087        1.8414939570
 H          0.4357717468        0.3964265089       -0.1426657304
 C          0.8597246249       -0.0149465087        0.7614371993
 C          0.4708419054       -1.2791573262        1.1805071721
 C          1.0375466932       -1.7950834507        2.3398809753
 C          1.9701604347       -1.0649069955        3.0569390599
 C          2.3536587763        0.1962549746        2.6358517070
 C          1.7849456123        0.7223016013        1.4842543267
 N          2.1839589686        2.0037536150        1.0327012843
 S          3.7434626851        2.0438312821        0.4149248180
 O          4.6746544283        1.8447254723        1.4960350534
 O          3.8547536273        3.2920095773       -0.3050263744
 C          3.8010088468        0.6622700779       -0.7105955195
 C          4.2200993905       -0.5687069789       -0.2480635416
 C          4.1721141279       -1.6557024208       -1.1054418945
 C          3.7035478383       -1.4940559315       -2.4000758090
 C          3.2826098238       -0.2516222940       -2.8481815720
 C          3.3253933576        0.8382097625       -1.9943907285
 H          3.0074284292        1.8208787349       -2.3049822477
 H          2.9129462092       -0.1303537683       -3.8538461123
 H          3.6656531709       -2.3410086214       -3.0674352104
 H          4.4942093034       -2.6242534510       -0.7584789248
 H          4.5775215723       -0.6513548045        0.7652071502
 H          1.5555922483        2.3717923428        0.3308469893
 H          3.0900462161        0.7741619476        3.1704664945
 H          2.4024642371       -1.4813245173        3.9539922401
 H          0.7371122827       -2.7741669455        2.6831720057
 C         -0.5072927613       -2.0888040239        0.3642643330
 H         -0.7763401208       -2.9784964152        0.9487753283
 C          0.1569994649       -2.5454027480       -0.9222459626
 C          1.0367691796       -3.7567197995       -0.8947771207
 C         -0.3007637720       -3.8166139570       -1.5682078568
 H         -0.3385893236       -3.8612905634       -2.6460881342
 H         -1.0948157568       -4.3651638213       -1.0819658513
 H          1.1510792963       -4.2714709666        0.0469672218
 H          1.9216746447       -3.7615827783       -1.5107755584
 H          0.4409343719       -1.7283327695       -1.5723785597
 O         -1.0726101530        0.0601645098       -1.6287095705
