  62
        -98.94078584
 C          2.6559673019        1.1986763091       -0.3671358836
 C          2.1959781026        0.0233633176       -1.0092517751
 C          3.1328424719       -1.1104379107       -1.0163044903
 C          4.3439804636       -0.9728272212       -0.4473684264
 C          5.3721739521       -2.0606470546       -0.3400992011
 C          5.2208751131       -2.8391423367        0.9741923062
 C          3.7895180622       -3.2924446104        1.2628829911
 H          3.1619843190       -2.4142974778        1.4347565616
 H          3.8094050629       -3.8576990603        2.1972839593
 C          3.1611645864       -4.1539303966        0.1586039140
 H          2.6537432993       -5.0018729911        0.6234444326
 H          3.9428972691       -4.5570805043       -0.4863540500
 C          2.1208369550       -3.4300516465       -0.6985472712
 H          1.3830253424       -2.9466707315       -0.0516026994
 H          1.5904332160       -4.1798193714       -1.2919666071
 C          2.6726453256       -2.3814041573       -1.6729140939
 H          1.8592292206       -2.0937215120       -2.3453000250
 H          3.4744158702       -2.8203829585       -2.2700880632
 H          5.5483525330       -2.1984752789        1.7961843258
 H          5.8789451665       -3.7091660955        0.9382611132
 H          5.2703613393       -2.7349658218       -1.1880100542
 H          6.3619144923       -1.6019231637       -0.3679460494
 O          4.7557424551        0.1765021668        0.1459409589
 C          3.9194869668        1.2764080344        0.2228604788
 O          4.4094747704        2.2523228281        0.8255983005
 H         -0.8145976149        1.7392740813       -0.9140769463
 C         -0.6391066931        1.7156521796        0.1495583986
 C          0.6051220495        2.0621412824        0.6496860432
 C          0.8144265299        1.9947300284        2.0247018726
 C         -0.1987662118        1.5914675485        2.8734044054
 C         -1.4397029966        1.2399738830        2.3699711250
 C         -1.6545289283        1.2947631602        1.0000682160
 N         -2.9123324336        0.9418909258        0.4713378214
 S         -3.6227634029       -0.4716827987        1.0663966843
 O         -4.2301151844       -0.1728928240        2.3399705435
 O         -2.6683251304       -1.5582099771        1.0646568711
 C         -4.8912334530       -0.7448860234       -0.1545864546
 C         -4.6086343568       -1.5349426108       -1.2527091765
 C         -5.5889729095       -1.7192989232       -2.2150774501
 C         -6.8263041706       -1.1109060509       -2.0653443440
 C         -7.0942794191       -0.3200240991       -0.9579805889
 C         -6.1191337707       -0.1324773313        0.0086235813
 H         -6.2832424887        0.4659859482        0.8893228658
 H         -8.0580241367        0.1495348168       -0.8448807041
 H         -7.5867607181       -1.2565635256       -2.8161928093
 H         -5.3836262834       -2.3350904241       -3.0759813575
 H         -3.6352869610       -1.9943820620       -1.3251443582
 H         -2.8860537349        0.9122083812       -0.5397434339
 H         -2.2333105733        0.9059819417        3.0185942001
 H         -0.0222030245        1.5434068480        3.9377614598
 H          1.7904823237        2.2483868740        2.4161573470
 C          1.7647761811        2.4252595053       -0.2456196357
 H          2.3670780362        3.1856321199        0.2690550923
 C          1.3580015026        2.9615911946       -1.6016836716
 C          0.7853339279        4.3425848467       -1.7024567941
 C          2.1625858835        4.0622304448       -2.2220246160
 H          2.3185055710        4.0459253709       -3.2902820238
 H          3.0078583014        4.4379969734       -1.6640860648
 H          0.6938728472        4.9098337232       -0.7885567270
 H         -0.0052993625        4.5239036418       -2.4143317555
 H          0.9713367224        2.1991198067       -2.2662399934
 O          1.0679259060       -0.0831224437       -1.5588521839
