  62
        -98.94179964
 C          2.5393451359       -0.2958756832       -0.0288424405
 C          2.2845804460       -1.3452941315        0.8808868294
 C          1.5909660162       -2.5295782892        0.3454237067
 C          1.2438974058       -2.5458436811       -0.9535860887
 C          0.4509693819       -3.5953643833       -1.6830866575
 C         -1.0494126603       -3.2542153614       -1.6410722854
 C         -1.8049765219       -3.8414972684       -0.4506158038
 H         -2.8277653079       -3.4597366956       -0.4960234023
 H         -1.8503149999       -4.9285509689       -0.5527551858
 C         -1.2200032205       -3.4993035872        0.9216732607
 H         -0.9540412967       -2.4400389831        0.9528724111
 H         -2.0053394540       -3.6478184381        1.6661864192
 C         -0.0096761023       -4.3667986657        1.2980393754
 H          0.0517155132       -5.2124430775        0.6130694564
 H         -0.1629798213       -4.7852328300        2.2953107290
 C          1.3362298208       -3.6326228958        1.3374196651
 H          1.4564175720       -3.1549082601        2.3153036255
 H          2.1443538902       -4.3677064144        1.2489902449
 H         -1.1483954690       -2.1649227753       -1.6319348435
 H         -1.5191238692       -3.6211539838       -2.5564009699
 H          0.7871228315       -3.5700948013       -2.7217115586
 H          0.6436503289       -4.5836194180       -1.2758503950
 O          1.5408419386       -1.5260980467       -1.8057769958
 C          2.1531916333       -0.3687002429       -1.3671653258
 O          2.3185623304        0.4962400428       -2.2497657141
 O          2.6118681227       -1.2891172864        2.0998219049
 C          3.1231408844        1.0088441877        0.4847847870
 C          2.1079706320        2.1024862060        0.2521519774
 C          2.4143411785        3.3531155066       -0.2670453406
 C          1.4064805712        4.2688100872       -0.5200803809
 C          0.0810067454        3.9531016237       -0.2850480544
 C         -0.2325161304        2.7113859598        0.2571539811
 C          0.7816234793        1.8170809313        0.5496727835
 H          0.5264898241        0.8574966133        0.9757965877
 N         -1.5631656968        2.3381005070        0.5217021430
 S         -1.9523951631        0.7052301939        0.2997598387
 O         -1.6192099215       -0.0115824937        1.5049388654
 O         -1.3763233158        0.2118314674       -0.9299581281
 C         -3.7256261522        0.8161610738        0.1477136253
 C         -4.2940984693        0.8685034463       -1.1108865167
 C         -5.6706494223        0.9892987492       -1.2205459318
 C         -6.4503657066        1.0591567874       -0.0758153082
 C         -5.8655434459        1.0032216653        1.1807724701
 C         -4.4900531065        0.8806943581        1.2973218810
 H         -3.9903689828        0.8229765078        2.2502086054
 H         -6.4751344903        1.0538217187        2.0683947104
 H         -7.5210225311        1.1543071949       -0.1638813027
 H         -6.1276586034        1.0280846422       -2.1961789024
 H         -3.6475822506        0.8017441702       -1.9715935013
 H         -2.2355778589        2.9442095946        0.0712098326
 H         -0.7041774427        4.6556688652       -0.5196371479
 H          1.6562696768        5.2349147732       -0.9320279856
 H          3.4381409685        3.6043768930       -0.4914588753
 H          3.2483300987        0.8706933717        1.5694738806
 C          4.4745076231        1.2921302018       -0.1345060415
 C          5.4959257814        2.0927959304        0.6154877569
 C          5.6866171246        0.6180671808        0.4326143050
 H          6.4505632072        0.2745479690       -0.2484143418
 H          5.5382529607       -0.0289101467        1.2849489651
 H          6.1347252544        2.7627613399        0.0601819013
 H          5.2272490073        2.4495082504        1.5982934152
 H          4.4202534422        1.4041112265       -1.2115260233
