  62
        -98.94274426
 C          1.3009147937        1.3736584616       -0.4351644051
 C          1.4865966123       -0.0237482660       -0.5888980987
 C          2.6343153709       -0.5943994440        0.1349649151
 C          3.3953648190        0.1836195840        0.9228135705
 C          4.5722919674       -0.2650186458        1.7464883093
 C          5.8902106746       -0.3476888917        0.9639611812
 C          5.9925067081       -1.5142096102       -0.0196136856
 H          5.7479342343       -2.4436509760        0.4956624085
 H          7.0369115810       -1.5790926447       -0.3312506720
 C          5.1125617755       -1.3684405785       -1.2688640993
 H          5.6966206840       -1.6205330255       -2.1568165308
 H          4.8012479879       -0.3266806397       -1.3741422236
 C          3.8696054518       -2.2583729553       -1.2756751459
 H          4.1705019448       -3.3080718429       -1.3016351655
 H          3.3012782343       -2.0470318785       -2.1848058151
 C          2.9378741590       -2.0471370340       -0.0752867694
 H          3.3763520142       -2.4775579496        0.8251771677
 H          1.9922573002       -2.5572720946       -0.2756610539
 H          6.6963021842       -0.4450476782        1.6949039770
 H          6.0377131718        0.5938673203        0.4299386668
 H          4.3529351039       -1.2324361301        2.1999656125
 H          4.6905071077        0.4717851444        2.5441865259
 O          3.1591132695        1.5142073908        1.0785670263
 C          2.1225416679        2.1340183393        0.4002412573
 O          2.0362308285        3.3610662633        0.6153184136
 O          0.7573886632       -0.7720554099       -1.2853077090
 C          0.1753954364        2.1500312435       -1.0992296339
 C         -1.0215004230        2.2371748073       -0.1855737681
 C         -1.7375105189        3.4219232688       -0.0576434521
 C         -2.8368084476        3.4906608479        0.7796559039
 C         -3.2399175669        2.3842647013        1.5046440095
 C         -2.5219321248        1.1973969501        1.3942410598
 C         -1.4271388617        1.1290865792        0.5445000260
 H         -0.8715190275        0.2079611854        0.4720050082
 N         -2.8871743839        0.0774113579        2.1434304501
 S         -2.3757066499       -1.4669510089        1.8005744351
 O         -3.2435591718       -2.2985689984        2.6104581211
 O         -0.9637720070       -1.6039192665        2.0590285627
 C         -2.7468029709       -1.7483640644        0.0800564934
 C         -1.8235633907       -2.3921162392       -0.7162158346
 C         -2.1409674635       -2.6440972795       -2.0413429453
 C         -3.3705462778       -2.2503956162       -2.5437765798
 C         -4.2900476881       -1.6063677297       -1.7295831900
 C         -3.9794264695       -1.3543058686       -0.4036537245
 H         -4.6762264845       -0.8603747140        0.2537907862
 H         -5.2447502220       -1.2984287965       -2.1245230874
 H         -3.6133998128       -2.4440771551       -3.5767401798
 H         -1.4189708199       -3.1362442262       -2.6725468437
 H         -0.8677569877       -2.6615759663       -0.2977167505
 H         -3.7578074171        0.1259869255        2.6479272210
 H         -4.0914833650        2.4386109977        2.1650266976
 H         -3.3840274868        4.4162964911        0.8723984661
 H         -1.4146486599        4.2966630887       -0.6025866649
 H          0.5620535421        3.1744429165       -1.2271535184
 C         -0.1866728820        1.6255350275       -2.4818986732
 C         -1.4290463432        0.8406818490       -2.7615744268
 C         -1.3094455387        2.2480261943       -3.2584706494
 H         -1.1715783662        2.4144437143       -4.3160086027
 H         -1.9007685820        3.0034401444       -2.7643332823
 H         -1.3574639593        0.0264069418       -3.4653077073
 H         -2.0984813280        0.6398392044       -1.9395627813
 H          0.6958949227        1.3436896217       -3.0464743409
