  62
        -98.94497138
 C         -2.1860957194       -0.8692527200       -0.0396946598
 C         -3.0637450195       -0.5353412795        1.0246589100
 C         -3.8100683897        0.7207182703        0.8849857092
 C         -3.6035227098        1.4881015097       -0.2006008813
 C         -4.3183823500        2.7752908394       -0.4907094021
 C         -5.5889115200        2.5334906486       -1.3176051719
 C         -6.4880960698        1.4308979488       -0.7584973812
 H         -7.3675192098        1.3707198783       -1.4031872812
 H         -5.9668618296        0.4739987189       -0.8351931506
 C         -6.9323367298        1.6503412597        0.6943755686
 H         -8.0003557298        1.4359129695        0.7700573088
 H         -6.7915558500        2.6958028199        0.9709266580
 C         -6.2249992397        0.7567530704        1.7148309392
 H         -6.7611001397        0.8350319909        2.6642696191
 H         -6.2827936895       -0.2853397098        1.3910298899
 C         -4.7547667897        1.0945800009        1.9926423590
 H         -4.6601240499        2.1548825210        2.2359753783
 H         -4.4385607696        0.5129108015        2.8633670393
 H         -6.1476203801        3.4695579185       -1.3723861725
 H         -5.2933728699        2.2542629980       -2.3316208018
 H         -3.6440027701        3.4220136291       -1.0549127525
 H         -4.5707894001        3.2629617199        0.4489746776
 O         -2.7408764597        1.1482759992       -1.1905596611
 C         -2.0114547295       -0.0310672307       -1.1410035403
 O         -1.2718427495       -0.2001438412       -2.1310703602
 O         -3.2147486993       -1.2583789788        2.0448853005
 C         -1.3778853592       -2.1507319098        0.1005777410
 C          0.0340210908       -1.7643937593        0.4674674708
 C          0.3992141307       -1.6688692484        1.8068383007
 C          1.6604070907       -1.2293505479        2.1650555804
 C          2.5780946906       -0.8617436984        1.1965623502
 C          2.2172830306       -0.9394031593       -0.1415342497
 C          0.9623036207       -1.4093673297       -0.5003402794
 H          0.6876428207       -1.4452038904       -1.5431324294
 N          3.1354488205       -0.5286382498       -1.1298431700
 S          3.6826418003        1.0582403704       -1.0004666410
 O          2.7192549601        1.9025374507       -0.3307318215
 O          4.0600184202        1.4470323196       -2.3422448513
 C          5.1563739003        0.9124653013       -0.0096892009
 C          6.1553584204        0.0648226312       -0.4474826304
 C          7.3102368605       -0.0546660781        0.3089428097
 C          7.4476327603        0.6736041426        1.4814423792
 C          6.4373299102        1.5232340727        1.9052850087
 C          5.2787362902        1.6462957421        1.1539194086
 H          4.4633152201        2.2886145421        1.4464039282
 H          6.5453965801        2.0890259133        2.8167062683
 H          8.3472909004        0.5786615032        2.0686797093
 H          8.0981095206       -0.7142003282       -0.0172743599
 H          6.0093605005       -0.4791921194       -1.3655658600
 H          2.7927434206       -0.6881500204       -2.0676602299
 H          3.5580341605       -0.5035842280        1.4671610700
 H          1.9300384707       -1.1644508772        3.2081639704
 H         -0.3274903992       -1.9229301880        2.5653648309
 H         -1.8182738991       -2.6762059293        0.9582629414
 C         -1.4653312190       -3.0499668005       -1.1143318184
 C         -1.0202681488       -4.4760110804       -0.9940272475
 C         -2.4770713688       -4.1549174207       -1.1339781677
 H         -2.9701513288       -4.3838881614       -2.0668817475
 H         -3.1108231988       -4.2682128603       -0.2666319976
 H         -0.5104352087       -4.9292301608       -1.8302192472
 H         -0.6643286387       -4.8053461997       -0.0296513473
 H         -1.2782847791       -2.5381824011       -2.0496532987
