  62
        -98.94468074
 C          0.8564989884        1.8518589509        0.2056422298
 C          1.6293468193        1.0522600917        1.0811845597
 C          2.8959383196        0.5439991927        0.5373488595
 C          3.2189449790        0.8172867327       -0.7402582107
 C          4.4517778392        0.3214883236       -1.4380362910
 C          4.1998619001       -1.0250420667       -2.1303741606
 C          3.5423135713       -2.0694637771       -1.2284079102
 H          2.5299200811       -1.7421252579       -0.9811097200
 H          3.4514607919       -2.9882783573       -1.8107745200
 C          4.3112522119       -2.3587169562        0.0680569196
 H          4.3547147429       -3.4391822261        0.2181443098
 H          5.3391810316       -2.0060632853       -0.0233053808
 C          3.6785035418       -1.7574007065        1.3240035297
 H          2.6202906920       -2.0228274374        1.3643887601
 H          4.1660998925       -2.1995386759        2.1968569196
 C          3.7881312705       -0.2346853763        1.4633796393
 H          4.8283214002        0.0752108845        1.3411095790
 H          3.4691214806        0.0288652636        2.4761127094
 H          3.5484667397       -0.8547226374       -2.9905407905
 H          5.1547261303       -1.4061889260       -2.4972511508
 H          4.7393731383        1.0585619037       -2.1897061812
 H          5.2577962095        0.2240783245       -0.7131589912
 O          2.4291696481        1.5522418919       -1.5640366606
 C          1.2425261878        2.1089086710       -1.1099019703
 O          0.6414551669        2.7947297303       -1.9574982903
 O          1.2824503999        0.7859521017        2.2636513399
 C         -0.4222240620        2.4844700099        0.7255072501
 C         -1.5921847219        2.1008548887       -0.1445399095
 C         -2.3777921429        3.0268746779       -0.8179971294
 C         -3.4271997128        2.6075856969       -1.6160655690
 C         -3.7315088417        1.2649351166       -1.7349207186
 C         -2.9614641807        0.3294248574       -1.0530563287
 C         -1.8949255808        0.7498735984       -0.2753439791
 H         -1.2943580000        0.0172885691        0.2474823509
 N         -3.2495209296       -1.0419451729       -1.1480381583
 S         -3.2309030583       -1.9768886926        0.2409188418
 O         -4.1543955675       -3.0581983234       -0.0365853977
 O         -3.5151315486       -1.1899103026        1.4175885418
 C         -1.5933678577       -2.6650173712        0.3209529515
 C         -0.9594445273       -2.7612726104        1.5431889313
 C          0.2689856833       -3.3991231593        1.6130255411
 C          0.8399783534       -3.9237406791        0.4637996710
 C          0.1963470429       -3.8066523099       -0.7587995988
 C         -1.0354972676       -3.1773246009       -0.8337538686
 H         -1.5698834880       -3.0769556216       -1.7637799984
 H          0.6485381330       -4.2084009196       -1.6511996089
 H          1.7937288838       -4.4237835182        0.5215207008
 H          0.7723536837       -3.4831925387        2.5632278409
 H         -1.4343595174       -2.3328572006        2.4116653014
 H         -4.0508572296       -1.2614234337       -1.7225845480
 H         -4.5566849316        0.9379847458       -2.3496351483
 H         -4.0217631936        3.3374543263       -2.1443779290
 H         -2.1624109438        4.0784441281       -0.7292629897
 H         -0.5832279113        2.0471943700        1.7220520002
 C         -0.2342034432        3.9800949001        0.8766846197
 C         -1.0781725936        4.7490201896        1.8475120898
 C          0.3720986167        4.5108107309        2.1395955294
 H          1.0564385160        5.3432667614        2.0724547891
 H          0.6315969475        3.7935644512        2.9044523195
 H         -1.3897368845        5.7482293992        1.5833594097
 H         -1.8086354029        4.1960192691        2.4186691302
 H          0.0494089761        4.4626772702       -0.0521516304
