  62
        -98.93875157
 C          1.8521701209        0.7819777684        0.8505302217
 C          2.1363349776       -0.6086602466        0.8591384835
 C          3.5428004952       -0.9883831540        0.6950709613
 C          4.4789121336       -0.0303997031        0.5727046460
 C          5.9594970135       -0.2517083921        0.4208009920
 C          6.4031762428       -0.5282954773       -1.0222675630
 C          6.0256614364       -1.9068234488       -1.5660895427
 H          6.5830282530       -2.0482306357       -2.4942619813
 H          6.3578003376       -2.6750442180       -0.8670841126
 C          4.5289476050       -2.0849937401       -1.8575304069
 H          4.0474850367       -1.1054490840       -1.9069131095
 H          4.4018826695       -2.5524437384       -2.8366104505
 C          3.7833309029       -2.9508367421       -0.8419040740
 H          2.7276192497       -2.9759785171       -1.1237243599
 H          4.1675099979       -3.9726252193       -0.8795005817
 C          3.8747433375       -2.4471305345        0.6044019637
 H          4.8693717682       -2.6369328681        1.0074106847
 H          3.1421490876       -2.9920314050        1.2045645540
 H          5.9858238027        0.2459389787       -1.6702845830
 H          7.4912756100       -0.4351402471       -1.0521401958
 H          6.2752114055       -1.0737008135        1.0639396511
 H          6.4474507068        0.6640438238        0.7615228424
 O          4.1728579986        1.2923338429        0.5927435786
 C          2.8581521927        1.7378548228        0.7020422441
 O          2.7508688596        2.9764495721        0.6584043043
 O          1.2499945145       -1.4919535192        1.0081503862
 C          0.3928911353        1.1673007252        1.0027396189
 C         -0.2933432219        1.2958785726       -0.3328527879
 C          0.2754937303        2.0084353130       -1.3834114863
 C         -0.3938176985        2.1290497939       -2.5877849361
 C         -1.6450218909        1.5631627719       -2.7604772563
 C         -2.2208560800        0.8468724537       -1.7179100557
 C         -1.5331021121        0.7038055774       -0.5209168366
 H         -1.9737458005        0.1282660356        0.2778148067
 N         -3.4807642678        0.2527888796       -1.8588504691
 S         -4.5349304226        0.1991365376       -0.5591547967
 O         -5.8417588513        0.0466920948       -1.1611116156
 O         -4.3610934284        1.3389818952        0.3096300593
 C         -4.1078853558       -1.3059459176        0.2887064440
 C         -4.0861094775       -2.4791792758       -0.4389912157
 C         -3.7628889873       -3.6610980049        0.2071175018
 C         -3.4703966719       -3.6502945560        1.5626398075
 C         -3.5006833547       -2.4647776467        2.2801362297
 C         -3.8235217498       -1.2790144113        1.6393565919
 H         -3.8519342770       -0.3342657503        2.1600323984
 H         -3.2701427898       -2.4577353328        3.3334787061
 H         -3.2150557876       -4.5706561260        2.0637132885
 H         -3.7367946432       -4.5858808273       -0.3464745276
 H         -4.3213555436       -2.4474885242       -1.4897292528
 H         -3.9527164130        0.4445202322       -2.7300983742
 H         -2.1715822987        1.6731177052       -3.6963134325
 H          0.0572979585        2.6837074265       -3.3969989131
 H          1.2391575883        2.4746732142       -1.2423052181
 H         -0.0671860963        0.3099079493        1.5204683586
 C          0.1699718529        2.3899696576        1.8818197916
 C         -0.2410471995        3.7278340841        1.3537429646
 C         -1.2199264629        2.8999119501        2.1283126763
 H         -1.4834997511        3.2132877950        3.1274858152
 H         -2.0340405522        2.4443831258        1.5819997046
 H          0.1890329983        4.6023895302        1.8174861627
 H         -0.3912243953        3.8331347173        0.2908713028
 H          0.8468941244        2.4014896653        2.7306307045
