  62
        -98.94051551
 C         -1.8308358936        0.2080680004        0.9642222742
 C         -3.1965248204        0.4617669238        1.2509887567
 C         -4.1750009557       -0.2898915643        0.4575296343
 C         -3.7487619901       -1.1489025150       -0.4858870041
 C         -4.6202480066       -2.0126878682       -1.3566257315
 C         -5.1610330194       -1.2998752836       -2.6035639821
 C         -6.2563192818       -0.2662343953       -2.3382772377
 H         -6.6925896851       -0.0064599621       -3.3048819709
 H         -7.0450503804       -0.7197632097       -1.7370937941
 C         -5.7625387190        1.0187868782       -1.6588779263
 H         -4.6767616368        1.0888949754       -1.7587926931
 H         -6.1861631617        1.8867314933       -2.1693400137
 C         -6.1332199566        1.1376532721       -0.1804709877
 H         -7.2188367450        1.2031159428       -0.0793049172
 H         -5.7031082718        2.0646539539        0.2075364788
 C         -5.6303665460       -0.0195107444        0.6925284566
 H         -5.7514756161        0.2650597999        1.7407123195
 H         -6.2196712988       -0.9166525197        0.5032821495
 H         -4.3269055179       -0.8219039691       -3.1227075206
 H         -5.5684116826       -2.0669094742       -3.2662917748
 H         -4.0008513334       -2.8512324134       -1.6821724600
 H         -5.4524955375       -2.4025501178       -0.7697048138
 O         -2.4312861925       -1.3470032696       -0.7488858221
 C         -1.4397054000       -0.6624553278       -0.0541011200
 O         -0.2869591216       -0.9248702224       -0.4398998600
 O         -3.5781013362        1.2795109081        2.1300019508
 C         -0.7924057298        0.9720690962        1.7656224035
 C          0.2565148060        1.5529117070        0.8503891455
 C         -0.1562877787        2.3478137795       -0.2165481207
 C          0.7591716406        2.8813665835       -1.1020168718
 C          2.1141342683        2.6511672820       -0.9349073358
 C          2.5381015963        1.8718407660        0.1311290265
 C          1.6141141800        1.3301929648        1.0178547046
 H          1.9655225423        0.7102390330        1.8278399315
 N          3.9204998353        1.6548404351        0.3137123747
 S          4.7532863935        0.7450607812       -0.8185636137
 O          6.1530578137        0.8975077953       -0.4903767836
 O          4.3565935616        1.1622437063       -2.1384700157
 C          4.2656380814       -0.9458729620       -0.5189041609
 C          2.9604260132       -1.3195487646       -0.7679680930
 C          2.5735423464       -2.6207376568       -0.4888003348
 C          3.4915313985       -3.5228526657        0.0255532439
 C          4.8005855184       -3.1323248486        0.2667484965
 C          5.1921342192       -1.8308587414       -0.0013659820
 H          6.1964866128       -1.4813199460        0.1758123757
 H          5.5134229282       -3.8360128760        0.6659447759
 H          3.1835763165       -4.5341644199        0.2407994907
 H          1.5471649913       -2.9001573731       -0.6661248719
 H          2.2485465601       -0.6099522079       -1.1577604612
 H          4.1550760471        1.3204232698        1.2383172961
 H          2.8416856429        3.0462622585       -1.6245168972
 H          0.4181653897        3.4858813495       -1.9293055172
 H         -1.2142689922        2.5304270655       -0.3511705383
 H         -1.3558328606        1.8120372940        2.2063046887
 C         -0.2086044735        0.1858228327        2.9311042812
 C         -0.9373663956       -0.9804609593        3.5266996732
 C          0.3314889909       -1.2024710388        2.7622812152
 H          1.2182426230       -1.4808061181        3.3134096903
 H          0.2722008637       -1.6419079959        1.7792309665
 H         -0.9219405535       -1.0985346759        4.5998612770
 H         -1.8697486862       -1.2776900586        3.0690462695
 H          0.3129634530        0.8292807377        3.6334055507
