  62
        -98.94022432
 C          1.4968614425        1.5929167752       -0.1562356002
 C          2.5787695602        1.2282288111        0.6849110431
 C          3.4896217775        0.1870248655        0.1817271109
 C          3.2640898609       -0.3467748914       -1.0309776843
 C          4.0787549614       -1.4018727601       -1.7281026904
 C          3.4952833733       -2.8070456723       -1.5103766478
 C          3.9180857016       -3.4930874513       -0.2108071286
 H          3.2964645669       -4.3842391502       -0.0981081901
 H          4.9531563749       -3.8282858856       -0.3049264768
 C          3.7992103583       -2.6416921831        1.0564726122
 H          3.7673006503       -3.3194318452        1.9116769436
 H          2.8590263132       -2.0878246663        1.0465005353
 C          4.9760791972       -1.6708502518        1.2396854622
 H          5.3949934305       -1.7962067705        2.2401212381
 H          5.7675348060       -1.9367644915        0.5389950117
 C          4.6334780736       -0.1802273138        1.0861035292
 H          4.3596109815        0.2343834201        2.0610911786
 H          5.5276498143        0.3605698434        0.7587842254
 H          3.8029518148       -3.4433458788       -2.3427868942
 H          2.4065241086       -2.7291190776       -1.5519007335
 H          4.0330171163       -1.1727863490       -2.7952964131
 H          5.1148698964       -1.3541966051       -1.4053931185
 O          2.1975836260        0.0104664643       -1.7964254193
 C          1.2844633278        0.9694321812       -1.3851963553
 O          0.3614513932        1.1590046517       -2.2016444344
 H         -1.6037035944        1.9917970339       -1.1607836909
 C         -1.7333821615        1.7399740419       -0.1199731666
 C         -0.7336334548        2.0460164780        0.7912041017
 C         -0.9089336960        1.6746092234        2.1206500951
 C         -2.0578234861        1.0195410878        2.5267804239
 C         -3.0431545770        0.6957071894        1.6106626829
 C         -2.8661923702        1.0459437876        0.2786838034
 N         -3.8185529290        0.6333319377       -0.6748438311
 S         -4.1705262312       -1.0068922956       -0.6453017884
 O         -4.4283743570       -1.3802559690       -2.0186518214
 O         -5.2569674825       -1.2408318960        0.2745770892
 C         -2.6964157707       -1.8082502304       -0.0284783809
 C         -2.7901781505       -2.6443986402        1.0658593422
 C         -1.6393377146       -3.2313109535        1.5667416792
 C         -0.4146913312       -2.9619342852        0.9761806284
 C         -0.3389583253       -2.1206638518       -0.1222570327
 C         -1.4863746697       -1.5423309671       -0.6384916553
 H         -1.4325122981       -0.8837388618       -1.4916531725
 H          0.6116367405       -1.8943749363       -0.5792545046
 H          0.4863639886       -3.4041276283        1.3717934897
 H         -1.6982925245       -3.8873054794        2.4201163475
 H         -3.7599147971       -2.8106051199        1.5061747720
 H         -3.5808276072        0.9195006795       -1.6145122323
 H         -3.9351546861        0.1633305052        1.8997427653
 H         -2.1824764383        0.7458679057        3.5630850962
 H         -0.1240493959        1.8905162561        2.8311049058
 C          0.5601435072        2.6814944402        0.3464533486
 H          1.0549629463        3.0966164969        1.2341683789
 C          0.3646164617        3.7945943661       -0.6621549959
 C         -0.2204380010        5.0958477068       -0.2039098622
 C          1.2278223029        5.0163520879       -0.5801455583
 H          1.5494849771        5.4818729282       -1.4998067524
 H          1.9637193061        5.0576366000        0.2094877884
 H         -0.8961157665        5.6186892039       -0.8633425749
 H         -0.4679580975        5.1889112091        0.8426846684
 H          0.1032926775        3.4455535373       -1.6530247835
 O          2.7806311009        1.7589016506        1.8089513306
