  62
        -98.94492014
 C          2.2065616532        0.7887362389       -0.1209363468
 C          3.0437353560        0.5199260159        0.9948892711
 C          3.8849509389       -0.6795854458        0.9106464559
 C          3.7981696688       -1.4646143631       -0.1781722699
 C          4.6347798756       -2.6852041851       -0.4269055182
 C          5.9181528658       -2.3308932562       -1.1916633256
 C          6.6860296055       -1.1504911368       -0.5965602184
 H          7.5858139709       -1.0111331137       -1.1996091302
 H          6.0846551607       -0.2447359424       -0.7025709127
 C          7.0796292815       -1.3271990371        0.8766456392
 H          7.0220084546       -2.3809843029        1.1515261336
 H          8.1188792887       -1.0159474025        1.0010364676
 C          6.2469257167       -0.5014073882        1.8590003583
 H          6.2261498323        0.5419960233        1.5347156747
 H          6.7416386673       -0.5317073867        2.8333505428
 C          4.8010063635       -0.9698829440        2.0661297839
 H          4.7894626361       -2.0347700160        2.3074180835
 H          4.3913782974       -0.4200990509        2.9184541823
 H          6.5611266390       -3.2126266901       -1.2130525341
 H          5.6494892931       -2.0810401887       -2.2207157018
 H          4.8826232445       -3.1492735599        0.5258021147
 H          4.0490395186       -3.3885318868       -1.0213949173
 O          2.9609025731       -1.1985993344       -1.2106868566
 C          2.1529711326       -0.0703296462       -1.2183355807
 O          1.4599264675        0.0295294585       -2.2517280610
 H         -0.5204067166        0.7797652296       -1.5434848191
 C         -0.8980132788        1.0464012125       -0.5677283802
 C         -0.0658091299        1.7011512631        0.3291035757
 C         -0.5570788397        1.9984993485        1.5952567264
 C         -1.8495032433        1.6528853100        1.9488766531
 C         -2.6760544541        1.0015604832        1.0508085659
 C         -2.1891151682        0.6864014836       -0.2107921488
 N         -3.0147927261        0.0094261106       -1.1283023451
 S         -3.7316755727       -1.4180382614       -0.6055517567
 O         -2.9538142119       -2.0544814571        0.4333005676
 O         -3.9634676362       -2.1936086177       -1.8047649563
 C         -5.3009023938       -0.8812916952        0.0447708327
 C         -5.6481296580       -1.1770059517        1.3483576622
 C         -6.8767462461       -0.7494424513        1.8278573926
 C         -7.7317159018       -0.0387708403        0.9995187608
 C         -7.3693612191        0.2471989109       -0.3084845690
 C         -6.1432222372       -0.1778845523       -0.7940820681
 H         -5.8243952820        0.0191609559       -1.8039417499
 H         -8.0369892740        0.7995602367       -0.9499407217
 H         -8.6861877124        0.2941228674        1.3755832945
 H         -7.1602068161       -0.9713638217        2.8441611434
 H         -4.9485288067       -1.7277324552        1.9570035835
 H         -2.5678628590       -0.1353004449       -2.0232277395
 H         -3.6820004476        0.7249811129        1.3212316549
 H         -2.2173615838        1.8916244404        2.9350820738
 H          0.0903840243        2.4872853131        2.3087828426
 C          1.3554414891        2.0471246594       -0.0460114266
 H          1.7842358185        2.6299209480        0.7802059256
 C          1.4173162888        2.8864518618       -1.3066672343
 C          1.0371095142        4.3338488993       -1.2338870438
 C          2.4708407541        3.9443670201       -1.4301062280
 H          2.9252142232        4.1074283590       -2.3958978641
 H          3.1521301175        4.0703152714       -0.6011977257
 H          0.7463095003        4.7249934983       -0.2708092398
 H          0.5035961184        4.7679996125       -2.0652734935
 H          1.1582412224        2.3409183901       -2.2045430750
 O          3.0902489182        1.2602220043        2.0130377338
