  62
        -98.93173368
 C         -2.4056037113       -0.8491116796        0.8333124211
 C         -3.4459300314       -0.7740301002       -0.1234284189
 C         -4.4452929513        0.2915241200        0.0827267004
 C         -4.3105132512        1.1407738007        1.1148088198
 C         -5.2207641212        2.2672639511        1.5364276390
 C         -5.8079114712        3.1584270703        0.4340626084
 C         -4.8885847912        3.3845808494       -0.7750121018
 H         -3.8817733112        3.0266064195       -0.5525838616
 H         -4.8171266012        4.4559984893       -0.9713803025
 C         -5.3994707513        2.7065013286       -2.0484605713
 H         -4.9368174413        3.1884757679       -2.9130521116
 H         -6.4773146813        2.8668216586       -2.1228758114
 C         -5.1078170514        1.2102938985       -2.1549811103
 H         -4.0366726014        1.0507414583       -2.3066233102
 H         -5.6161162814        0.8308892279       -3.0447096700
 C         -5.5382941014        0.3654102093       -0.9447860996
 H         -5.6957812914       -0.6595830109       -1.2910529089
 H         -6.4677246213        0.7333762597       -0.5173260399
 H         -6.0428889111        4.1180720307        0.8976360978
 H         -6.7515228412        2.7383036601        0.0890332787
 H         -6.0386709312        1.8397867215        2.1239077093
 H         -4.6207123911        2.8756551315        2.2174945786
 O         -3.2677576212        1.0564107813        1.9899879298
 C         -2.3006634213        0.0775229612        1.8725562304
 O         -1.4086886012        0.1323242517        2.7446542204
 H          0.9296404987       -0.5069971295        1.1514066407
 C          0.8137118386       -0.7686486502        0.1069363009
 C         -0.3013093514       -1.4990814004       -0.2825558285
 C         -0.4553290015       -1.8117929114       -1.6278587983
 C          0.4901319985       -1.4019862620       -2.5516440286
 C          1.6026497286       -0.6785887818       -2.1595260292
 C          1.7625867686       -0.3568236409       -0.8181377494
 N          2.8899493487        0.3913396793       -0.4052325500
 S          4.3870750886       -0.3391886009       -0.7086730295
 O          4.6188226886       -0.3340564419       -2.1299003595
 O          4.4478799786       -1.6322886205       -0.0606017886
 C          5.4950536587        0.8025900996        0.0926010296
 C          5.8760017787        1.9451619591       -0.5843949012
 C          6.7198805188        2.8459189295        0.0454151682
 C          7.1652811988        2.5912074204        1.3340669383
 C          6.7748068488        1.4394733408        2.0003319291
 C          5.9299642187        0.5350191505        1.3764589498
 H          5.6095339287       -0.3777359992        1.8531384405
 H          7.1245209688        1.2423316815        3.0009918293
 H          7.8232626589        3.2931009407        1.8216419778
 H          7.0279047388        3.7415755291       -0.4694769525
 H          5.5128245287        2.0967334284       -1.5872807013
 H          2.8343579187        0.6040257600        0.5834053999
 H          2.3520641185       -0.3716466724       -2.8705069494
 H          0.3593367885       -1.6496296028       -3.5944502585
 H         -1.3292346515       -2.3557096615       -1.9481740979
 C         -1.3089188314       -1.9011425097        0.7679902318
 H         -0.8030018414       -1.8585521690        1.7422932017
 C         -1.8410513115       -3.3051967898        0.5696651828
 C         -0.9294056815       -4.4641829296        0.8347727136
 C         -2.0663615215       -4.1757313389        1.7674614834
 H         -2.9157849215       -4.8420639689        1.7667463339
 H         -1.8376953414       -3.7616351683        2.7389715531
 H          0.0734173985       -4.2433760094        1.1698806434
 H         -0.9958409616       -5.3300105101        0.1941231942
 H         -2.5473509515       -3.3928279103       -0.2446125971
 O         -3.5661630914       -1.5579999209       -1.0996839284
