  62
        -98.94124100
 C          2.0269446889        1.2175709152        0.1178943854
 C          2.8234097261        0.6635554036        1.1524598217
 C          4.0078720802       -0.0895425861        0.7267063166
 C          4.2648310200       -0.2402216543       -0.5850801124
 C          5.4465083422       -0.9571312033       -1.1798542300
 C          5.2620391877       -2.4763569571       -1.2963008727
 C          5.3191778886       -3.2419628094        0.0262988432
 H          5.3938840131       -4.3028787611       -0.2206692083
 H          6.2273715068       -2.9684531854        0.5643509579
 C          4.0982115514       -3.0315767301        0.9327770886
 H          3.2770620004       -2.6140830764        0.3448777430
 H          3.7578392967       -3.9967391616        1.3151400917
 C          4.3533277629       -2.1295603896        2.1405785535
 H          3.4159353403       -2.0214824802        2.6923161172
 H          5.0805966569       -2.6032529612        2.8036028302
 C          4.8582537339       -0.7249480921        1.7851562940
 H          5.8978058707       -0.7700767012        1.4611684508
 H          4.7966266125       -0.1023418598        2.6811288212
 H          4.3091399157       -2.6757269172       -1.7924643285
 H          6.0577518335       -2.8524684896       -1.9434593851
 H          6.3395150102       -0.7418715046       -0.5922838007
 H          5.5836351979       -0.5499028064       -2.1839384624
 O          3.4575569280        0.2734494046       -1.5489023316
 C          2.3094005564        0.9921905393       -1.2307362715
 O          1.6573019488        1.3576761161       -2.2250244682
 O          2.5538785280        0.7907981087        2.3768558824
 C          0.7918214537        2.0007069042        0.5268071964
 C         -0.4092441171        1.5105083076       -0.2417931812
 C         -1.1607559202        2.3088215478       -1.0927732431
 C         -2.2377403889        1.7776723794       -1.7816685670
 C         -2.5932735469        0.4504408601       -1.6324390005
 C         -1.8566674598       -0.3540181662       -0.7714040792
 C         -0.7819252488        0.1811207409       -0.0786824575
 H         -0.2026742563       -0.4493725397        0.5852707217
 N         -2.2144662590       -1.7012537579       -0.6028579859
 S         -3.8352522809       -2.0920008665       -0.4765630837
 O         -3.8660755894       -3.3178995511        0.2904247506
 O         -4.4261222893       -2.1582878335       -1.7900045445
 C         -4.5746130543       -0.7578500801        0.4494976596
 C         -4.0944810923       -0.5011168593        1.7185356854
 C         -4.6389865090        0.5473897336        2.4417333021
 C         -5.6500858732        1.3171556090        1.8867443951
 C         -6.1254864148        1.0428959743        0.6140412583
 C         -5.5827290823       -0.0033203520       -0.1148305349
 H         -5.9204236352       -0.2495061317       -1.1083754062
 H         -6.9133250374        1.6413349782        0.1859182751
 H         -6.0696698932        2.1345176991        2.4516022615
 H         -4.2707664822        0.7613451263        3.4322912117
 H         -3.3115170626       -1.1215826938        2.1245358063
 H         -1.6576225218       -2.1981205970        0.0757676406
 H         -3.4136603302        0.0185768164       -2.1822437983
 H         -2.8037831702        2.4054591041       -2.4526684413
 H         -0.8852674483        3.3395717229       -1.2412625126
 H          0.6447806221        1.7344588595        1.5872074513
 C          0.9629207814        3.5114833521        0.4861081980
 C          2.3063876157        4.1399697356        0.7014137045
 C          1.6492929847        4.2184770715       -0.6424060353
 H          1.2553970881        5.1718558106       -0.9633303666
 H          2.0421284253        3.6168650500       -1.4466301536
 H          2.3644442516        5.0358310480        1.3012129768
 H          3.1548817528        3.4811627165        0.8175743615
 H          0.1182939142        4.0235741591        0.9366975565
