  62
        -98.94472141
 C         -2.0199437422       -1.3698588711        0.2994006305
 C         -2.6466023161       -0.7479520015       -0.8076332148
 C         -3.7919338943        0.1176781278       -0.4894550777
 C         -4.1760180871        0.2615335067        0.7920222361
 C         -5.2864070567        1.1563612618        1.2596903932
 C         -4.7597683110        2.5544606798        1.6130345571
 C         -3.8657727411        3.1684570565        0.5352972351
 H         -3.5772127737        4.1641444808        0.8795919808
 H         -2.9484187596        2.5804267720        0.4525029661
 C         -4.5218534056        3.2760300072       -0.8483778254
 H         -4.3078189773        4.2643046625       -1.2608235731
 H         -5.6050044930        3.1929407214       -0.7518442827
 C         -4.0236144372        2.2504138514       -1.8685654724
 H         -2.9308286704        2.2665437154       -1.9018156587
 H         -4.3840479805        2.5513963106       -2.8558300303
 C         -4.4777536510        0.8035318960       -1.6371127248
 H         -5.5622443743        0.7731870555       -1.5142238449
 H         -4.2153402272        0.2277839068       -2.5294801688
 H         -5.6133189499        3.2096435653        1.7957639328
 H         -4.1819762995        2.4839252767        2.5376901172
 H         -6.0419184194        1.2275520314        0.4798767157
 H         -5.7355989672        0.7118595984        2.1493842964
 O         -3.5525455693       -0.3579361448        1.8271120858
 C         -2.4519664844       -1.1718479708        1.6099333928
 O         -1.9499053104       -1.6480865356        2.6489736651
 O         -2.2700632592       -0.9035188963       -1.9978101760
 C         -0.8151037372       -2.2665598529        0.0785335612
 C          0.2884626161       -1.4903680303       -0.5996046655
 C          1.0245819010       -1.9820707329       -1.6690782407
 C          2.0202920506       -1.2132143861       -2.2480333355
 C          2.3102550288        0.0511950340       -1.7711069452
 C          1.5953104736        0.5434689800       -0.6857671269
 C          0.6022449969       -0.2297826485       -0.1052193472
 H          0.0452321025        0.1570683498        0.7399189955
 N          1.8936440473        1.8192146272       -0.1791925854
 S          3.5029863656        2.2425433312       -0.0047652739
 O          3.5246642541        3.2065024054        1.0731648314
 O          4.0239557028        2.7022400695       -1.2680694228
 C          4.3384277482        0.7419347505        0.4793198510
 C          3.9226681146        0.1073000018        1.6331029505
 C          4.5420408339       -1.0734052047        2.0089259635
 C          5.5624260114       -1.5963280692        1.2290413949
 C          5.9725050962       -0.9441432506        0.0768285656
 C          5.3545501287        0.2358593442       -0.3053165351
 H          5.6387509281        0.7738212467       -1.1950113567
 H          6.7674907638       -1.3519746899       -0.5263118712
 H          6.0399148309       -2.5174172239        1.5236376954
 H          4.2232419134       -1.5814385291        2.9050520119
 H          3.1292350041        0.5402620339        2.2215540099
 H          1.3534931444        2.0793258163        0.6322806565
 H          3.0668761511        0.6697972874       -2.2257423289
 H          2.5751006700       -1.6030015049       -3.0875338462
 H          0.8116606140       -2.9636732990       -2.0585435268
 H         -0.4626723659       -2.5537589673        1.0801630610
 C         -1.2248467692       -3.5179272265       -0.6697466511
 C         -0.4892853460       -4.8048102882       -0.4507041840
 C         -1.8750774043       -4.6319863207        0.0923380916
 H         -2.6858826612       -5.1715037928       -0.3737116809
 H         -1.9973097270       -4.4975707292        1.1575729276
 H         -0.3501206099       -5.4688041882       -1.2904396177
 H          0.3319856694       -4.7990155004        0.2496870125
 H         -1.6035986959       -3.3034084482       -1.6623091232
