  62
        -98.92868769
 C         -2.5899615476       -0.9762355023        0.7157777801
 C         -2.9160053060        0.3198168625        1.1845397556
 C         -4.2527458135        0.8488952701        0.8552691239
 C         -5.0915915911        0.0752444083        0.1419610942
 C         -6.4790070166        0.4013126310       -0.3437689424
 C         -6.4750194084        1.3470837524       -1.5554126093
 C         -5.5082497286        2.5235075844       -1.4487772284
 H         -4.4951126309        2.1432687630       -1.3044903936
 H         -5.5215850552        3.0517452324       -2.4059222633
 C         -5.8327943983        3.5354889200       -0.3523815697
 H         -6.8338503782        3.9383034813       -0.5219914380
 H         -5.1218911487        4.3596757772       -0.4526377391
 C         -5.7547405090        3.0151068837        1.0845930514
 H         -5.7632677439        3.8861745516        1.7463513897
 H         -6.6328383967        2.4272077399        1.3378965672
 C         -4.4859449718        2.2334147651        1.4103098110
 H         -3.6128339184        2.8270613512        1.1161570512
 H         -4.4089869232        2.1304157519        2.4994857737
 H         -7.4898821245        1.7189623856       -1.7063260067
 H         -6.1940687978        0.7652374565       -2.4367345948
 H         -6.9361952088       -0.5445321869       -0.6427942630
 H         -7.0715737274        0.8134313079        0.4675773005
 O         -4.7393082129       -1.1691891199       -0.2856983694
 C         -3.4955913719       -1.7272921181       -0.0335069975
 O         -3.3499901106       -2.8634998650       -0.5193292828
 H          1.1748017461       -0.2603645355        1.3691937539
 C          0.9758168471       -0.4866671014        0.3303537426
 C         -0.2135878101       -1.1122022812       -0.0123265164
 C         -0.4648774700       -1.3807428507       -1.3540984634
 C          0.4573846761       -1.0280679446       -2.3226405435
 C          1.6401026283       -0.3975865401       -1.9778936116
 C          1.9000192266       -0.1222272308       -0.6421551559
 N          3.0854441302        0.5423810528       -0.2836340993
 S          4.5144230531        0.0690501106       -1.0522259034
 O          4.5718976064        0.7066612949       -2.3435391970
 O          4.6198733312       -1.3728084891       -1.0540313589
 C          5.7308201533        0.7865590029        0.0331211250
 C          5.9977047675        2.1383819061       -0.0748637488
 C          6.9219310038        2.7083231847        0.7859613150
 C          7.5591612367        1.9221946763        1.7347866271
 C          7.2820901369        0.5667033513        1.8293883827
 C          6.3575653486       -0.0098321036        0.9725048910
 H          6.1162926091       -1.0602798675        1.0050059853
 H          7.7813634967       -0.0419826868        2.5659861416
 H          8.2784592235        2.3684518014        2.4032146520
 H          7.1422287541        3.7612122863        0.7144119083
 H          5.4843747609        2.7077319217       -0.8320074432
 H          3.2087776049        0.5914049463        0.7186007090
 H          2.3651746827       -0.1199611341       -2.7258572004
 H          0.2532479165       -1.2456879095       -3.3606294680
 H         -1.3863714498       -1.8729162526       -1.6277450298
 C         -1.2043328472       -1.4912020218        1.0594988870
 H         -0.9233084201       -0.9428030475        1.9728985027
 C         -1.1735308361       -2.9745871408        1.3981874001
 C         -0.5599417012       -4.0174343216        0.5183445445
 C          0.1182799521       -3.6266636364        1.7949421945
 H          0.1164300053       -4.3227907104        2.6198022810
 H          1.0185967293       -3.0355694113        1.7149598684
 H         -0.1123788032       -3.7052644753       -0.4121244688
 H         -1.0556146617       -4.9742155279        0.4594178205
 H         -2.0584753281       -3.2782511884        1.9482362578
 O         -2.1150707385        1.0186262400        1.8640334577
