  62
        -98.94173065
 C         -2.1174243111       -0.8255674799        0.2575252295
 C         -2.9804557710       -0.2342232903        1.2148940798
 C         -3.7567185610        0.9239767400        0.7588508703
 C         -3.5604806309        1.4100975206       -0.4797719794
 C         -4.2550949909        2.5999547609       -1.0844909289
 C         -5.6274051409        2.2785734413       -1.6926198590
 C         -6.7390377809        1.9994982709       -0.6800652091
 H         -6.7801726308        2.8126109805        0.0453622512
 H         -7.6817871909        2.0058621712       -1.2306101491
 C         -6.6056183210        0.6578523105        0.0539841902
 H         -5.9107256210        0.0137294907       -0.4900839901
 H         -7.5722230910        0.1493184706        0.0624832300
 C         -6.1415863610        0.7729779198        1.5061219403
 H         -6.0469212410       -0.2355197704        1.9170696498
 H         -6.8955071109        1.3048481296        2.0904393805
 C         -4.7941877009        1.4854413396        1.6835072706
 H         -4.9099009808        2.5568092897        1.5205930911
 H         -4.4502277509        1.3213254791        2.7077176705
 H         -5.9237104908        3.1383500916       -2.2979329986
 H         -5.5202055709        1.4222336816       -2.3625478894
 H         -4.3626867108        3.3827558305       -0.3328535285
 H         -3.6027078608        2.9689453212       -1.8791202187
 O         -2.6590159610        0.8687592209       -1.3406102197
 C         -1.9302691910       -0.2690484093       -1.0092211902
 O         -1.1689922411       -0.6565651789       -1.9141422104
 O         -3.0904528211       -0.6509046108        2.3990480096
 C         -1.3267139612       -2.0489012001        0.6868112989
 C          0.1263591089       -1.8805135201        0.3207037190
 C          0.8184938788       -2.7413271097       -0.5196588014
 C          2.1472944288       -2.5021032997       -0.8244874613
 C          2.8137050289       -1.4112349699       -0.2981272508
 C          2.1295967289       -0.5407904603        0.5405472696
 C          0.8009793889       -0.7857516103        0.8482663095
 H          0.2652616990       -0.1019553906        1.4966813998
 N          2.7996738990        0.5669847094        1.0914546401
 S          3.6582045591        1.5718868298        0.0543250906
 O          3.7152695392        2.8476678695        0.7361359212
 O          3.0961038291        1.5799532105       -1.2762830394
 C          5.2895857890        0.8579477697        0.0290978702
 C          5.8712137190        0.5148800303       -1.1756550999
 C          7.1446629890       -0.0331437098       -1.1728319002
 C          7.8102175090       -0.2263032904        0.0280141797
 C          7.2131811690        0.1265911991        1.2292512299
 C          5.9411405890        0.6761668891        1.2334008602
 H          5.4435512391        0.9676560788        2.1431661403
 H          7.7340143290       -0.0248676114        2.1609618698
 H          8.8002968089       -0.6540877105        0.0273640795
 H          7.6101097189       -0.3072390994       -2.1059371703
 H          5.3119827990        0.6775065107       -2.0835211998
 H          2.2230349791        1.1176056392        1.7115841504
 H          3.8462267989       -1.2194271699       -0.5400769307
 H          2.6712358388       -3.1746628394       -1.4864401216
 H          0.3107435587       -3.5839031395       -0.9590575118
 H         -1.3984789311       -2.0423288006        1.7878340389
 C         -1.9206012712       -3.3715405999        0.2264611583
 C         -3.3913724413       -3.5085794597       -0.0273522417
 C         -2.4239876013       -3.5866424292       -1.1682119818
 H         -2.2556809613       -4.5486822490       -1.6299580222
 H         -2.3644437612       -2.7570461289       -1.8549792014
 H         -3.8863638913       -4.4127422398        0.2937376479
 H         -4.0001523012       -2.6208223497        0.0668456887
 H         -1.4368794413       -4.2180057001        0.7041536779
