  62
        -98.93970965
 C         -1.7896037084       -1.3354727319        0.3409542627
 C         -1.6262543971       -0.1418513290       -0.3992001817
 C         -2.4463700123        1.0141629521        0.0204036795
 C         -3.2870022030        0.8702571774        1.0617416436
 C         -4.2532995310        1.8839050826        1.6120790519
 C         -5.5114211364        2.0312790065        0.7370015492
 C         -5.2594704027        2.0234064325       -0.7693924990
 H         -4.7207761334        1.1127004039       -1.0379653619
 H         -6.2315842086        1.9821087720       -1.2678147940
 C         -4.5093042348        3.2372742918       -1.3126239040
 H         -5.1031492015        4.1354560765       -1.1274543013
 H         -4.4256986932        3.1119400277       -2.3951219781
 C         -3.1078428810        3.4654591169       -0.7459488844
 H         -3.1614135925        3.8559994222        0.2668395262
 H         -2.6340462128        4.2431673157       -1.3524718785
 C         -2.1825708783        2.2527989429       -0.8020478446
 H         -2.1121025344        1.9066313644       -1.8392033750
 H         -1.1715979659        2.5831675997       -0.5309819403
 H         -6.0228862149        2.9530904028        1.0185402428
 H         -6.1761878227        1.1942711987        0.9639192183
 H         -3.7535905270        2.8392804817        1.7442084480
 H         -4.5567880642        1.5289383139        2.5994945258
 O         -3.4049363863       -0.3007880743        1.7508198615
 C         -2.6639816737       -1.4205683827        1.4221406216
 O         -2.8626591608       -2.4091099804        2.1585203209
 O         -0.8347022703       -0.0355576238       -1.3702056113
 C         -0.9891088494       -2.5702207561       -0.0275450753
 C          0.4922510897       -2.2767664522       -0.0258082136
 C          1.3710899699       -2.8347880080       -0.9461695837
 C          2.7232049680       -2.5417919838       -0.8961387829
 C          3.2280818640       -1.6796151616        0.0593749735
 C          2.3565731212       -1.1112394832        0.9798213840
 C          1.0067700203       -1.4246622981        0.9425160509
 H          0.3356938212       -0.9832377787        1.6697351127
 N          2.8504602684       -0.2030911004        1.9316264742
 S          3.9261497739        0.9656136365        1.3990635374
 O          5.2670309561        0.4355604754        1.4463759939
 O          3.6811415724        2.1158884133        2.2426341674
 C          3.4882636756        1.3217306309       -0.2944127490
 C          2.1739421625        1.6163957626       -0.5965857279
 C          1.8281640795        1.8685831948       -1.9135723996
 C          2.8013308807        1.8347688650       -2.9002502603
 C          4.1199375061        1.5515060331       -2.5800298756
 C          4.4684834644        1.2860993808       -1.2656645894
 H          5.4775503109        1.0444493034       -0.9732798945
 H          4.8743040923        1.5270218972       -3.3499008000
 H          2.5259046520        2.0272181519       -3.9251273306
 H          0.7965330541        2.0584819532       -2.1610463936
 H          1.4299470075        1.6310568840        0.1846258678
 H          2.1365242329        0.2035568821        2.5178896898
 H          4.2774256946       -1.4371599308        0.1100673501
 H          3.3929907440       -2.9857438643       -1.6163048773
 H          0.9958551070       -3.4994608791       -1.7066477115
 H         -1.1906718512       -3.3095115722        0.7622918697
 C         -1.4815963380       -3.1251790546       -1.3497731025
 C         -1.4737177859       -4.6013319013       -1.6068267860
 C         -2.7708258123       -3.8880309919       -1.3747589657
 H         -3.4405850945       -3.7449877730       -2.2094448849
 H         -3.2763040410       -4.0349959657       -0.4308977796
 H         -1.2558327098       -4.9503085340       -2.6050272099
 H         -1.1051020330       -5.2454316079       -0.8226978639
 H         -1.2781888660       -2.4579000102       -2.1793835148
