  62
        -98.93932704
 C         -1.0740746863       -1.3798961186       -0.1080835133
 C         -1.7207803367       -0.5893101403        0.8756766091
 C         -2.5290882093        0.5462178763        0.4018048857
 C         -2.5921727697        0.7970328393       -0.9169774260
 C         -3.2756449893        1.9373295092       -1.6304214070
 C         -4.6651510896        2.3572707176       -1.1359399199
 C         -5.5458637228        1.2026666016       -0.6368775524
 H         -6.5156332977        1.2542267219       -1.1352369922
 H         -5.0928161065        0.2464498424       -0.9047819994
 C         -5.7887546315        1.2477108399        0.8731969222
 H         -6.6759114931        0.6528826874        1.1033645653
 H         -6.0019752816        2.2787678297        1.1632103999
 C         -4.6475489204        0.7101083045        1.7349368008
 H         -4.9058711041        0.8880609622        2.7814843561
 H         -4.5652234408       -0.3723512942        1.6047121977
 C         -3.2618867604        1.3189342441        1.4615417564
 H         -3.3350532394        2.3752013234        1.2141759106
 H         -2.6705276799        1.2123566805        2.3749810202
 H         -5.1572333170        2.8580390106       -1.9715619587
 H         -4.5626965229        3.0973397195       -0.3437782871
 H         -2.6047481786        2.8017561819       -1.6000177665
 H         -3.3383339150        1.6210631976       -2.6748739794
 O         -1.9630218797        0.0086511721       -1.8321629995
 C         -1.1976528779       -1.0916778656       -1.4679482600
 O         -0.7136559885       -1.7002885815       -2.4417766758
 H          1.3277404884       -0.9577605138       -1.2160026104
 C          1.8512995987       -1.2805749368       -0.3297282180
 C          1.2191535786       -2.0904170176        0.6018849724
 C          1.9359722596       -2.5054255140        1.7189578350
 C          3.2515832076       -2.1184220101        1.8967813035
 C          3.8687897828       -1.2864848064        0.9797605731
 C          3.1600226489       -0.8614436874       -0.1372083665
 N          3.7419758353        0.0129562675       -1.0753085063
 S          2.9006529784        1.4156654091       -1.4418944705
 O          1.7760709658        1.1300037142       -2.2935573321
 O          3.9040833715        2.3052681471       -1.9872874872
 C          2.3509350095        2.0154030013        0.1446423507
 C          3.2502495585        2.7029381810        0.9367825922
 C          2.8591933001        3.1003231015        2.2046800550
 C          1.5870051090        2.7912392856        2.6627777862
 C          0.6958621685        2.1015558288        1.8556172933
 C          1.0785430157        1.7108251272        0.5823299552
 H          0.4068803959        1.1744430677       -0.0701755397
 H         -0.2905367048        1.8465312800        2.2089133919
 H          1.2842178784        3.0893692516        3.6540335054
 H          3.5467114409        3.6423611801        2.8336952028
 H          4.2272503400        2.9256672842        0.5394160109
 H          4.7091420824        0.2337133943       -0.8815872909
 H          4.8891044951       -0.9660569010        1.1248513206
 H          3.7970156580       -2.4515949506        2.7661126019
 H          1.4511358743       -3.1271871956        2.4561307550
 C         -0.2173357755       -2.5210030331        0.4074018316
 H         -0.6240807698       -2.7657041384        1.3988011782
 C         -0.2637705239       -3.7713262623       -0.4495150844
 C         -0.0344694285       -5.1093869385        0.1841073339
 C         -1.4039375870       -4.7303308234       -0.2922471672
 H         -1.7996656235       -5.2057417320       -1.1769770580
 H         -2.1545938400       -4.4951778600        0.4483796503
 H          0.5163210644       -5.8517914245       -0.3724473689
 H          0.1366306206       -5.1409942304        1.2490685555
 H          0.1179979706       -3.6149541328       -1.4503602249
 O         -1.6170959837       -0.8178751925        2.1104084789
