  62
        -98.92923680
 C         -2.3902076423       -0.7864348581        0.2555922934
 C         -2.5700116207        0.6198564138        0.2486122911
 C         -3.8227288071        1.1319332759       -0.3301724574
 C         -4.7203383847        0.2614796116       -0.8224396828
 C         -6.0408620038        0.5467739528       -1.4933892959
 C         -6.9268018455        1.6387372585       -0.8791961810
 C         -6.8408536337        1.7596399887        0.6492014015
 H         -7.8502255127        1.7425313644        1.0643202571
 H         -6.3036131931        0.9045077286        1.0628954912
 C         -6.1666028600        3.0547823583        1.1080749661
 H         -6.4578326956        3.2557836011        2.1418433295
 H         -6.5396945171        3.8796261312        0.4971497738
 C         -4.6388873517        3.0512667418        1.0625163164
 H         -4.2450932993        2.3885354073        1.8381372947
 H         -4.2921552649        4.0600560122        1.2998940119
 C         -4.0160305201        2.6202159766       -0.2754761865
 H         -4.6022503149        2.9807029564       -1.1174485982
 H         -3.0147083213        3.0558485293       -0.3358520495
 H         -6.6811200575        2.6013636887       -1.3252774933
 H         -7.9538992030        1.4109207913       -1.1691722037
 H         -5.8424508116        0.7936050582       -2.5404022974
 H         -6.5747177284       -0.4064857423       -1.4834165911
 O         -4.5085056323       -1.0828243869       -0.7996238022
 C         -3.3538007319       -1.6468957917       -0.2708472149
 O         -3.3340630411       -2.8885424587       -0.3391127663
 O         -1.7116796144        1.4209297001        0.7105445866
 C         -1.0998756571       -1.3055296836        0.8625183735
 C         -0.0229199608       -1.4664726150       -0.1807884968
 C         -0.2721730764       -2.1169574076       -1.3852817266
 C          0.7333574052       -2.2584878042       -2.3239129573
 C          1.9999247297       -1.7574837474       -2.0815811961
 C          2.2629716008       -1.1135343749       -0.8774977022
 C          1.2499363755       -0.9697106810        0.0609882786
 H          1.4586511995       -0.4461531593        0.9817575068
 N          3.5578403227       -0.6495709356       -0.5924821675
 S          3.7719560234        0.7414085401        0.3396193769
 O          3.5145936309        0.4186132572        1.7201550754
 O          3.0184068476        1.8403238068       -0.2211711422
 C          5.5196926671        0.9995616018        0.1000465052
 C          6.4060985535        0.2305138885        0.8303973908
 C          7.7661025468        0.4030415274        0.6287498211
 C          8.2149038274        1.3360770457       -0.2943989030
 C          7.3135804212        2.1022611156       -1.0179589458
 C          5.9516482106        1.9336170400       -0.8222267299
 H          5.2142422764        2.5121388767       -1.3553748995
 H          7.6654533805        2.8292522024       -1.7320730663
 H          9.2740170378        1.4691161642       -0.4487402875
 H          8.4700507190       -0.1886518072        1.1913527345
 H          6.0110258007       -0.4747507212        1.5427125068
 H          4.1512874607       -0.6302145280       -1.4111170706
 H          2.7817225258       -1.8677418238       -2.8176149274
 H          0.5270851383       -2.7623344072       -3.2562951472
 H         -1.2581664048       -2.5143040298       -1.5732864464
 H         -0.7688042367       -0.5060228008        1.5459915198
 C         -1.2922464600       -2.5636702848        1.6992969075
 C         -0.7847749303       -3.9114316644        1.2935159548
 C         -0.1226045000       -3.1724816856        2.4149329231
 H         -0.2623335229       -3.5258585916        3.4253716241
 H          0.8503764009       -2.7420117618        2.2280691414
 H         -1.4022942882       -4.7658930493        1.5236271665
 H         -0.2584710299       -3.9961637723        0.3561650458
 H         -2.2359938693       -2.5490382843        2.2355037953
