  62
        -98.93539329
 C          2.0284710849        0.7025627919       -0.4153966928
 C          3.1672927980        1.2562463242        0.2221678128
 C          4.4416724669        0.5331143733        0.0701471952
 C          4.4628466483       -0.6240741296       -0.6164098841
 C          5.6035523061       -1.5548814650       -0.9715476905
 C          6.9616014252       -1.4220167627       -0.2877598699
 C          6.9669963106       -1.7858206914        1.1968353535
 H          7.9529113429       -1.5501899596        1.6033921056
 H          6.8183236277       -2.8646719651        1.2896832671
 C          5.9009674622       -1.1004844904        2.0480699412
 H          6.0091100094       -1.4627744542        3.0741017704
 H          4.9086733165       -1.4011068519        1.7051198639
 C          5.9737110137        0.4246539881        2.0843520417
 H          6.9716083290        0.7376910826        2.3976032251
 H          5.2624639637        0.7700868748        2.8394477203
 C          5.6285271480        1.1362453164        0.7650575977
 H          6.4872167432        1.1715649141        0.0988189826
 H          5.3539678088        2.1684359827        1.0016144149
 H          7.3627750530       -0.4240843733       -0.4385622586
 H          7.6363691914       -2.1141267542       -0.7989602737
 H          5.7480301549       -1.4457389488       -2.0522859077
 H          5.2205957418       -2.5684541458       -0.8147218424
 O          3.3334940678       -1.1401428867       -1.1809484153
 C          2.0975521229       -0.5120547952       -1.0974775551
 O          1.1843362376       -1.1379910675       -1.6655636837
 O          3.1253827277        2.3235814569        0.8901312279
 C          0.7137033166        1.4479319407       -0.2616880753
 C         -0.3577364642        0.5087077224        0.2276932267
 C         -0.3706787236        0.1350990663        1.5682464124
 C         -1.3183586958       -0.7498987479        2.0470658350
 C         -2.2713596799       -1.2833639014        1.1976940719
 C         -2.2652413964       -0.9183058540       -0.1420732773
 C         -1.3232142662       -0.0151271220       -0.6174859704
 H         -1.3154016576        0.2453272929       -1.6642789225
 N         -3.2240267675       -1.4642215105       -1.0099940984
 S         -4.8163442528       -1.5250206960       -0.5119250571
 O         -5.0085721117       -2.6337942955        0.3896746617
 O         -5.5946917533       -1.5593204778       -1.7301093600
 C         -5.0827923038        0.0119173907        0.3545417742
 C         -5.3405685428        0.0089797729        1.7099302944
 C         -5.5030644225        1.2201250380        2.3638524505
 C         -5.4020807697        2.4068060599        1.6550275461
 C         -5.1454735014        2.3932606728        0.2922686007
 C         -4.9824004264        1.1857285453       -0.3662357291
 H         -4.7899583825        1.1378646836       -1.4260307441
 H         -5.0697295969        3.3179568442       -0.2570981560
 H         -5.5253328912        3.3486377975        2.1660147141
 H         -5.7047267825        1.2337785193        3.4228339315
 H         -5.4123074452       -0.9360460529        2.2230573553
 H         -3.1350590488       -1.1635617388       -1.9685431565
 H         -3.0055229730       -1.9910945943        1.5470143643
 H         -1.3131961244       -1.0326928411        3.0887824959
 H          0.3817892592        0.5409521543        2.2303230893
 H          0.9132513135        2.1803445310        0.5371222922
 C          0.2911906138        2.2503876911       -1.4832970611
 C          1.3140767813        2.9671235611       -2.3118112512
 C          0.5567613961        1.8116598910       -2.8909934501
 H         -0.1951087229        2.0183155170       -3.6392542628
 H          1.0744197192        0.8777499332       -3.0432537108
 H          1.0892568094        3.9620160687       -2.6653388731
 H          2.3529469803        2.8177820810       -2.0556041066
 H         -0.6429378849        2.7764865544       -1.3099760337
