  62
        -98.94515016
 C          1.5311070651        0.8058829597        0.0485486443
 C          2.8056855158        1.4171127495        0.0963327879
 C          3.9064935570        0.5595555177        0.5505708415
 C          3.6561266712       -0.7120297538        0.9129108570
 C          4.6689937657       -1.7015799875        1.4223806224
 C          5.4434972269       -2.4291901963        0.3149573816
 C          6.4802573344       -1.5788538351       -0.4201526550
 H          7.1359854847       -1.0982452742        0.3066224677
 H          7.0945859725       -2.2614548587       -1.0108085416
 C          5.8813130234       -0.5193544730       -1.3557846536
 H          4.8344559234       -0.7589290943       -1.5557454163
 H          6.4036388137       -0.5430163089       -2.3148984472
 C          5.9675277699        0.9130930697       -0.8289106813
 H          5.4828298424        1.5739096215       -1.5522279361
 H          7.0150176495        1.2125394612       -0.7495458601
 C          5.2939543317        1.1264597312        0.5331005569
 H          5.8978355016        0.6834316987        1.3248815588
 H          5.2159849829        2.2017694237        0.7122400977
 H          4.7278247760       -2.8331630053       -0.4045821204
 H          5.9605244658       -3.2722599019        0.7790068197
 H          4.1139794300       -2.4442506722        1.9994004005
 H          5.3709388286       -1.1985277745        2.0880369475
 O          2.4100416708       -1.2543049941        0.8767026362
 C          1.3192910403       -0.5195141860        0.4305952986
 O          0.2439290835       -1.1442152307        0.4292641766
 O          3.0118603629        2.6211885082       -0.2158580343
 C          0.3411336339        1.6122845476       -0.4364823174
 C         -0.7524813083        1.6027583331        0.6016544411
 C         -0.4319506909        1.8847087889        1.9276094321
 C         -1.4023019305        1.8589890980        2.9095563248
 C         -2.7122771572        1.5410065070        2.5947268315
 C         -3.0460077655        1.2755154487        1.2728742835
 C         -2.0716645257        1.3226159998        0.2844016167
 H         -2.3641103435        1.1388770872       -0.7347936904
 N         -4.3660471836        0.9709578746        0.9188054871
 S         -4.7114713540       -0.0015871236       -0.3917153121
 O         -4.5562753716        0.7449317402       -1.6156069248
 O         -6.0490883946       -0.4869187360       -0.1232137721
 C         -3.5590646246       -1.3616275796       -0.3507707461
 C         -2.8158342265       -1.6535640524       -1.4750648060
 C         -1.9423240026       -2.7274032545       -1.4420967575
 C         -1.8253837202       -3.4854353747       -0.2891800241
 C         -2.5808448128       -3.1812709156        0.8314809258
 C         -3.4584899921       -2.1109695216        0.8034169803
 H         -4.0618167596       -1.8544829450        1.6593387992
 H         -2.4814392076       -3.7709614100        1.7287147254
 H         -1.1349514926       -4.3134972026       -0.2619377096
 H         -1.3477699078       -2.9623869768       -2.3110001981
 H         -2.9309439594       -1.0330954967       -2.3502576460
 H         -4.9983736345        0.8172016854        1.6895241081
 H         -3.4690489859        1.5046797800        3.3631856364
 H         -1.1366286697        2.0770201491        3.9330921808
 H          0.5940417098        2.1176587488        2.1785211660
 H          0.7071506127        2.6437891439       -0.5496457215
 C         -0.1135388177        1.1018515239       -1.7879462440
 C         -0.7906137730        2.0213872449       -2.7582935727
 C          0.6071885014        1.5497766176       -3.0224656726
 H          0.7712155448        0.8335027852       -3.8135633466
 H          1.4166318446        2.2540815614       -2.8965904633
 H         -1.5953903991        1.6330592093       -3.3649629147
 H         -0.9304757825        3.0488802080       -2.4576950359
 H         -0.4425598097        0.0688579412       -1.7471607961
