  62
        -98.94468200
 C         -2.5517992523       -0.8548702104        0.2942939574
 C         -2.5050852737        0.0290978147       -0.8111978053
 C         -2.8031981451        1.4395190840       -0.5223970795
 C         -3.1209140927        1.8115381805        0.7296780635
 C         -3.3908215263        3.2202637694        1.1696224428
 C         -2.1118837294        3.9040845101        1.6717209265
 C         -0.9180845446        3.7737062720        0.7247143559
 H         -0.0945726263        4.3438402541        1.1611465820
 H         -0.5896621112        2.7319220652        0.6819526455
 C         -1.1778572710        4.2727923218       -0.7032289288
 H         -0.3151147501        4.8580319219       -1.0286720441
 H         -2.0459053981        4.9338608381       -0.7166914409
 C         -1.3674616695        3.1580913476       -1.7339969370
 H         -1.2881519557        3.5985978877       -2.7321664952
 H         -0.5536970623        2.4336190706       -1.6310942753
 C         -2.7057518408        2.4098366024       -1.6653408270
 H         -3.5278088846        3.1282007181       -1.6365646862
 H         -2.8020979254        1.8134411198       -2.5774191082
 H         -2.3305285159        4.9610876880        1.8357869764
 H         -1.8353285099        3.4603211859        2.6307652652
 H         -4.1182642532        3.1916170650        1.9828500966
 H         -3.8120249334        3.7806726520        0.3373706924
 O         -3.1974102886        0.9312717754        1.7592807559
 C         -2.8848848186       -0.4029657834        1.5758809132
 O         -2.9538341944       -1.0890336742        2.6153886866
 O         -2.2322099619       -0.3144922222       -1.9946177350
 C         -2.1638716062       -2.3267877083        0.2145807807
 C         -0.6574633487       -2.4096909849        0.2729421046
 C         -0.0007957235       -2.9632386112        1.3658827277
 C          1.3805085430       -2.9268069180        1.4527497303
 C          2.1330801916       -2.3110072745        0.4672766530
 C          1.4830422397       -1.7571359610       -0.6262733057
 C          0.1056695419       -1.8350922572       -0.7335305355
 H         -0.3850964122       -1.3841792290       -1.5832235602
 N          2.2335036337       -1.0251505679       -1.5866893165
 S          2.4700581509        0.5624546148       -1.0515401243
 O          1.3518229461        1.0283831062       -0.2622973847
 O          2.7938498803        1.3367051284       -2.2301563064
 C          3.9149557509        0.4002763811       -0.0266305556
 C          3.7954265423        0.4922389321        1.3456796404
 C          4.9275057051        0.3259991167        2.1284986675
 C          6.1507664840        0.0704780885        1.5276487533
 C          6.2539870994       -0.0172810507        0.1470772382
 C          5.1262092707        0.1475771353       -0.6407876175
 H          5.1581357307        0.0923259784       -1.7161155106
 H          7.2072707007       -0.2151002090       -0.3159063887
 H          7.0289931971       -0.0605442213        2.1398927953
 H          4.8485416278        0.3934582436        3.2016888286
 H          2.8221852785        0.6873400384        1.7677761771
 H          1.7568489286       -0.9781081511       -2.4785849198
 H          3.2068494878       -2.2494996299        0.5407768654
 H          1.8747139008       -3.3621558820        2.3077215516
 H         -0.5847530812       -3.3979286216        2.1642243804
 H         -2.5651881083       -2.7928391009        1.1242355170
 C         -2.7317475510       -3.0520846797       -0.9877110005
 C         -2.8304093661       -4.5466188564       -0.9490136897
 C         -4.0723641979       -3.7109728261       -0.8778292075
 H         -4.7295339187       -3.6840874843       -1.7339342671
 H         -4.5871051972       -3.6404694508        0.0694447801
 H         -2.6331768884       -5.0984624587       -1.8551247047
 H         -2.5047128520       -5.0458783329       -0.0490595905
 H         -2.4859724298       -2.5860332867       -1.9323551199
