  62
        -98.94877086
 C         -1.8155083276       -1.3331121500       -0.2480889193
 C         -2.8861431682       -0.6445896186        0.3666740693
 C         -3.2585610810        0.6348004520       -0.2443990363
 C         -2.5936753034        1.0753548208       -1.3284078635
 C         -2.8443755213        2.3690261429       -2.0536889876
 C         -2.1204393193        3.5646581264       -1.4188223377
 C         -2.7367468804        4.0747967020       -0.1155156312
 H         -3.8076700404        4.2314575261       -0.2533282625
 H         -2.2862304478        5.0474344453        0.0924849137
 C         -2.4962138423        3.1569516673        1.0913375871
 H         -2.1838482264        3.7594540718        1.9485631097
 H         -1.6680892955        2.4791581116        0.8667281210
 C         -3.7177198982        2.3464479201        1.5276561227
 H         -4.4952560660        3.0247300360        1.8872590607
 H         -3.4212952647        1.7034338528        2.3609001151
 C         -4.3160687223        1.4549591158        0.4314661540
 H         -4.8499762907        2.0637075909       -0.2976585940
 H         -5.0236196285        0.7660074173        0.9000842412
 H         -2.1275982335        4.3799069532       -2.1463377002
 H         -1.0796305572        3.2835864624       -1.2361419323
 H         -3.9152571102        2.5689325096       -2.1018925553
 H         -2.4663062066        2.2362835404       -3.0695829662
 O         -1.5931428250        0.3678253243       -1.9109573758
 C         -1.1360430217       -0.8122125960       -1.3503309693
 O         -0.1488089019       -1.3071372061       -1.9281390457
 O         -3.4908354745       -1.0728200350        1.3889734622
 C         -1.2849293701       -2.6050401181        0.3933461532
 C          0.1519519860       -2.3597630421        0.7819817153
 C          1.2026873078       -3.2125082615        0.4714803789
 C          2.5098667605       -2.8504524127        0.7524659759
 C          2.7980389999       -1.6226297646        1.3206652648
 C          1.7504398434       -0.7778576210        1.6606179498
 C          0.4438486094       -1.1625162545        1.4251611068
 H         -0.3630557348       -0.4872807586        1.6837759345
 N          2.0468536245        0.5330138820        2.1427732619
 S          1.9232793791        1.6376549138        0.8648475469
 O          2.2638003078        2.9276559067        1.4283048913
 O          0.6269041581        1.5702984958        0.2253087532
 C          3.2083332703        1.0780272427       -0.2246778170
 C          2.9057437404        0.1922108934       -1.2397255056
 C          3.9378214022       -0.2788427650       -2.0373637393
 C          5.2397730037        0.1377871266       -1.8067741892
 C          5.5242375978        1.0292037089       -0.7826678405
 C          4.4999570338        1.5029134533        0.0204267333
 H          4.6676673634        2.1970153945        0.8274662479
 H          6.5377465934        1.3517472084       -0.6065813086
 H          6.0369914742       -0.2354619898       -2.4301467361
 H          3.7114038997       -0.9740429595       -2.8297755664
 H          1.8837087943       -0.1209984489       -1.3948612751
 H          1.4081402801        0.8321109519        2.8690184393
 H          3.8133100724       -1.3072735076        1.4975249159
 H          3.3156460557       -3.5203822631        0.4957230290
 H          0.9988218552       -4.1532069449       -0.0134558734
 H         -1.8833680778       -2.7496057096        1.3051057724
 C         -1.4747256581       -3.7989081432       -0.5165269417
 C         -1.6093703688       -5.1748584853        0.0628199495
 C         -2.8022784820       -4.4932779739       -0.5349692655
 H         -3.1837239485       -4.8499535489       -1.4798070677
 H         -3.5668025328       -4.1178396324        0.1295284274
 H         -1.1740696857       -6.0047327852       -0.4728397184
 H         -1.5677134588       -5.2711050370        1.1371787897
 H         -0.9552961835       -3.6862768431       -1.4614213023
