  62
        -98.94010859
 C          1.9867990988        1.4893077914       -0.0592678989
 C          1.7823335199        0.2082534414       -0.6212963492
 C          2.9830358405       -0.6281933478       -0.7872287390
 C          4.1831203100       -0.1386357571       -0.4314754485
 C          5.5322797905       -0.8019335961       -0.5480768482
 C          5.6338105014       -2.2711289761       -0.1110824684
 C          4.6765637713       -2.6846177270        1.0165857512
 H          5.2473285914       -3.1933064467        1.7958051913
 H          4.2252386805       -1.8002228873        1.4695387912
 C          3.5750914221       -3.6373306476        0.5452884307
 H          3.1788068322       -4.1709129480        1.4124737505
 H          4.0195287528       -4.3806263772       -0.1202880993
 C          2.3896335719       -2.9794138083       -0.1609306896
 H          1.7894656213       -2.4207720488        0.5627690303
 H          1.7578736225       -3.7771161387       -0.5596185699
 C          2.7501255416       -2.0183166379       -1.3054337793
 H          3.6018534120       -2.3837342872       -1.8741225591
 H          1.8875955717       -1.9504722183       -1.9743429696
 H          5.4668088921       -2.9183714861       -0.9710921986
 H          6.6642612314       -2.4347242155        0.2086995319
 H          5.8678954808       -0.7125347957       -1.5852340581
 H          6.2027923699       -0.1908011358        0.0606761621
 O          4.3359853390        1.1132189730        0.0870619017
 C          3.2528501184        1.9485932522        0.2983135815
 O          3.5414861875        3.0515115623        0.8055655418
 H         -1.9200326415        2.0739495388       -0.2510590601
 C         -1.5668649515        1.6373123189        0.6675526899
 C         -0.2300917717        1.7138806697        1.0234924604
 C          0.1741320883        1.1356511898        2.2251882404
 C         -0.7327089715        0.4845130090        3.0377535100
 C         -2.0630905913        0.3886657382        2.6662878896
 C         -2.4791473113        0.9685455081        1.4749039095
 N         -3.8296206212        0.9124953273        1.0837855591
 S         -4.2537536903        0.3131200773       -0.4214149411
 O         -3.6506312105        1.1109289678       -1.4566161808
 O         -5.7003003103        0.2796960263       -0.4025479116
 C         -3.6254650191       -1.3564859823       -0.4482006112
 C         -2.2752380589       -1.5748146214       -0.6340138708
 C         -1.8014431781       -2.8772768411       -0.5916931909
 C         -2.6736714574       -3.9307874117       -0.3692330114
 C         -4.0279026877       -3.6929879626       -0.1860771717
 C         -4.5089803785       -2.3946640629       -0.2200339717
 H         -5.5531471087       -2.1625649837       -0.0847915120
 H         -4.7069500972       -4.5128891431       -0.0152984121
 H         -2.2961125268       -4.9408567914       -0.3394383014
 H         -0.7456056079       -3.0453474403       -0.7324016206
 H         -1.6006851994       -0.7518081509       -0.8082699605
 H         -4.4386327411        0.5117941568        1.7836438788
 H         -2.7727695912       -0.1262814824        3.2960423493
 H         -0.4019596815        0.0406446891        3.9646929600
 H          1.2158146982        1.2036897804        2.5101599608
 C          0.8020115781        2.4098986206        0.1698057408
 H          1.1893060774        3.2713843207        0.7337556511
 C          0.2590375382        2.9032496604       -1.1550290693
 C         -0.4317168027        4.2299659500       -1.2385725593
 C          0.9329732977        4.0563077510       -1.8329905588
 H          1.0302868780        4.0377033312       -2.9081995288
 H          1.7746130272        4.5057852115       -1.3257508885
 H         -0.5186914033        4.8065399698       -0.3298706592
 H         -1.2760220325        4.3279927895       -1.9046330395
 H         -0.1075283610        2.1008355403       -1.7858670795
 O          0.6532911903       -0.2205156493       -0.9723221497
