  62
        -98.93782422
 C          1.2034200079        1.5266846120        0.3531133281
 C          1.7212174162        0.5364556994        1.2215051116
 C          2.8933157096       -0.2299228669        0.7584222902
 C          3.3783089572        0.0170615067       -0.4719596536
 C          4.5296999829       -0.6505777508       -1.1759729596
 C          4.1646605215       -2.0421975445       -1.7154011990
 C          3.3868932712       -2.9252278120       -0.7430115844
 H          3.1138684354       -3.8413662905       -1.2743515652
 H          2.4505522616       -2.4302850349       -0.4749475797
 C          4.1444357297       -3.3267894373        0.5209980862
 H          5.0565682408       -3.8563078336        0.2362113387
 H          3.5087906154       -4.0297232149        1.0657815900
 C          4.5191614135       -2.1893178183        1.4742078682
 H          5.3875881527       -1.6438982950        1.1146086694
 H          4.8107552269       -2.6460959583        2.4244888745
 C          3.3820224199       -1.2221992393        1.7856840740
 H          3.6591948238       -0.6265143246        2.6639865906
 H          2.5000982409       -1.7966342837        2.0927658017
 H          5.0842361704       -2.5485196949       -2.0150175202
 H          3.5451908677       -1.9089526249       -2.6060421025
 H          5.3919374107       -0.7046124889       -0.5179062733
 H          4.7937939061       -0.0100375841       -2.0205859835
 O          2.8146247770        0.9422864268       -1.2991204573
 C          1.7074791402        1.6905073132       -0.9374678829
 O          1.2902627760        2.4423040844       -1.8383179136
 O          1.2138512231        0.2846190271        2.3489766788
 C         -0.0383724583        2.2752273435        0.8017892463
 C         -1.1422455994        2.0851936021       -0.2097279613
 C         -1.9768715183        3.0964767266       -0.6657442544
 C         -2.9817684952        2.8120801898       -1.5756304235
 C         -3.1900854934        1.5238244944       -2.0334030404
 C         -2.3565834666        0.5048887758       -1.5845106937
 C         -1.3486836796        0.7961956792       -0.6827877616
 H         -0.6856969741        0.0063357145       -0.3669842073
 N         -2.5129770329       -0.8169679254       -2.0234691884
 S         -2.0988910345       -2.0910573334       -1.0271654859
 O         -0.6660958750       -2.2206290112       -0.9320093750
 O         -2.7961340522       -3.2241759026       -1.5981274131
 C         -2.8119993205       -1.6892445860        0.5585973870
 C         -2.0128713081       -1.3792291083        1.6394741635
 C         -2.6136228729       -1.0296637481        2.8389995940
 C         -3.9954171589       -0.9990981574        2.9384715319
 C         -4.7861265551       -1.3237426004        1.8461474247
 C         -4.1911789267       -1.6693196205        0.6444830229
 H         -4.7714160796       -1.9384878936       -0.2230525076
 H         -5.8608987463       -1.3048641779        1.9273908622
 H         -4.4569255356       -0.7228395254        3.8733345330
 H         -1.9900353860       -0.7763209983        3.6817127216
 H         -0.9386328083       -1.4036659872        1.5395435938
 H         -3.3392562063       -1.0016110766       -2.5714479521
 H         -3.9752600140        1.3082571999       -2.7414722038
 H         -3.6175613273        3.6085839790       -1.9313039384
 H         -1.8307890816        4.1091376606       -0.3278907323
 H         -0.3477461323        1.7420244396        1.7180445742
 C          0.1843603543        3.7240835741        1.2079265218
 C          1.5525465486        4.2406133790        1.5364500197
 C          0.8446700655        4.7237447350        0.3079601718
 H          0.4654589604        5.7353984026        0.3019885767
 H          1.1884798392        4.3761122753       -0.6529787825
 H          1.6602043798        4.9155667028        2.3724897829
 H          2.3864633564        3.5650730232        1.4086609252
 H         -0.6235016737        4.0971457248        1.8300708564
