  62
        -98.94029070
 C          2.0280011442        1.1241051148        0.5023795237
 C          2.3809980448        0.3506363710       -0.6302009815
 C          3.0972927475       -0.9020667393       -0.3493292587
 C          3.3183623522       -1.2848442180        0.9202631368
 C          3.9914842052       -2.5560019478        1.3617764893
 C          5.5245953122       -2.4825324877        1.3761566402
 C          6.1885677989       -2.4772566530       -0.0012860286
 H          7.2557497124       -2.6442791613        0.1570019354
 H          5.8110426724       -3.3153839755       -0.5878731066
 C          6.0045237452       -1.1716955125       -0.7872788330
 H          5.6888260473       -0.3784931667       -0.1057173699
 H          6.9618933241       -0.8654526883       -1.2146182687
 C          5.0027675069       -1.2613117482       -1.9384895729
 H          5.3722623734       -1.9592391063       -2.6929982641
 H          4.9232674839       -0.2748609657       -2.4023952718
 C          3.5945067574       -1.7008312099       -1.5166552931
 H          2.9132010117       -1.5260999748       -2.3533962426
 H          3.5860190242       -2.7647366895       -1.2795738732
 H          5.8256798125       -1.5903271154        1.9298400860
 H          5.8859978384       -3.3538149983        1.9270541332
 H          3.6454096783       -2.7508034795        2.3792246472
 H          3.6695782751       -3.3799259215        0.7237836032
 O          2.9183042358       -0.5395472137        1.9843702950
 C          2.2838121411        0.6763970287        1.8021890297
 O          2.0000506239        1.2671238946        2.8634981502
 H         -0.0689625331        0.8936493157       -1.3056593426
 C         -0.7227708440        1.3379507316       -0.5689403637
 C         -0.1903049272        2.1984907307        0.3822887696
 C         -1.0452342883        2.7561287415        1.3245520572
 C         -2.3967524296        2.4553505125        1.3149575653
 C         -2.9193101615        1.5858956250        0.3736836292
 C         -2.0709097952        1.0231466334       -0.5703637916
 N         -2.5920262251        0.0937105075       -1.5067139889
 S         -2.8471762145       -1.4290498186       -0.8244615806
 O         -1.8633220434       -1.7190137077        0.1965722353
 O         -2.9084403792       -2.3514813060       -1.9372353053
 C         -4.4616003521       -1.2769167145       -0.0924280538
 C         -4.5948932221       -1.2813539735        1.2819581468
 C         -5.8603378782       -1.1453716634        1.8315705722
 C         -6.9623808157       -1.0075228162        1.0012545369
 C         -6.8110496625       -1.0062002523       -0.3776675510
 C         -5.5491118248       -1.1419894491       -0.9336677116
 H         -5.3839048883       -1.1520664165       -1.9980973623
 H         -7.6706490046       -0.8991874056       -1.0193884406
 H         -7.9452998768       -0.9007107717        1.4322487258
 H         -5.9793602514       -1.1454852322        2.9031487887
 H         -3.7076751139       -1.3858564220        1.8861235877
 H         -1.9781999270       -0.0228808160       -2.3030590139
 H         -3.9689188699        1.3410055412        0.3642900621
 H         -3.0485025733        2.8956217910        2.0538121302
 H         -0.6390868514        3.4117648808        2.0809060975
 C          1.2942105361        2.4547842325        0.4133525273
 H          1.5223420548        2.9726475427        1.3580447572
 C          1.7888659813        3.3380721666       -0.7240632635
 C          0.9425482423        3.7410180565       -1.8911701649
 C          1.2875219312        4.7476454316       -0.8380095396
 H          1.9912797013        5.5307404538       -1.0756168919
 H          0.5021661550        5.0477927972       -0.1606181699
 H          1.4236477174        3.8081847654       -2.8551369942
 H         -0.0733408807        3.3813598918       -1.9377930000
 H          2.8420784555        3.1796967289       -0.9310424538
 O          2.1172638049        0.6634523745       -1.8213927728
