  62
        -98.93945601
 C          2.5237944019        0.7897120575        0.7228225393
 C          3.1085449344        0.3163402241       -0.4769200301
 C          3.7116890162       -1.0232019620       -0.4084637687
 C          3.6652492662       -1.7112171793        0.7467727887
 C          4.1907886044       -3.1038376557        0.9385559180
 C          3.1044598266       -4.1520713329        0.6594130271
 C          2.3617005014       -3.9364212099       -0.6593533697
 H          1.6422979493       -4.7513115969       -0.7646193165
 H          1.7888026149       -3.0078596868       -0.6001145906
 C          3.2675177122       -3.8916494457       -1.8978389576
 H          4.2371743889       -4.3328049269       -1.6642462865
 H          2.8156732207       -4.4995513421       -2.6844016429
 C          3.4753741908       -2.4926536379       -2.4810686492
 H          2.5066597296       -2.0083185780       -2.6298092134
 H          3.9410726817       -2.5999405429       -3.4643489839
 C          4.3620046774       -1.5513236443       -1.6560774574
 H          5.3054633612       -2.0472616066       -1.4189980459
 H          4.5790105229       -0.6749555365       -2.2737769856
 H          3.5700108344       -5.1392470379        0.6593584028
 H          2.3754308443       -4.1200617751        1.4723762836
 H          5.0398409277       -3.2596871075        0.2760281857
 H          4.5246694163       -3.2058342374        1.9724904097
 O          3.0790702005       -1.2292390724        1.8730857428
 C          2.4855581442        0.0217386403        1.8862109956
 O          1.9593090390        0.3298105382        2.9760503180
 H         -0.1931022057        0.5137640905        0.8484336328
 C         -0.3116613023        1.2251156356        0.0393054772
 C          0.6798051790        2.1786026133       -0.1636686201
 C          0.5151236854        3.0970954683       -1.1903869850
 C         -0.6060201172        3.0440461083       -2.0019176548
 C         -1.5825709931        2.0859615790       -1.8061267594
 C         -1.4342076946        1.1691397625       -0.7722109413
 N         -2.4206631671        0.1826584172       -0.5645766157
 S         -4.0215145767        0.7309277340       -0.5247548751
 O         -4.4777928930        0.9015388375       -1.8810219513
 O         -4.1242413980        1.8953583708        0.3266438000
 C         -4.8500980628       -0.6592311023        0.2195654638
 C         -5.0892445631       -0.6521196460        1.5806136119
 C         -5.7181969081       -1.7448908343        2.1562613146
 C         -6.0920116406       -2.8211887721        1.3656459313
 C         -5.8446834314       -2.8135717965        0.0008143444
 C         -5.2174214377       -1.7236852794       -0.5814704938
 H         -5.0138473134       -1.6691607811       -1.6380974135
 H         -6.1393924028       -3.6513337323       -0.6102714028
 H         -6.5822439356       -3.6697051654        1.8162243013
 H         -5.9141494866       -1.7519050517        3.2164557955
 H         -4.7899899242        0.2100472542        2.1552229785
 H         -2.2228005910       -0.3704700678        0.2589568491
 H         -2.4613095515        2.0411199240       -2.4288265819
 H         -0.7203970834        3.7610467020       -2.8010104107
 H          1.2648854688        3.8515566314       -1.3613936995
 C          1.8704430278        2.1604492709        0.7655284640
 H          1.4942541577        2.2839164435        1.7917438995
 C          2.8859505802        3.2475224737        0.4874198199
 C          2.6559297403        4.6348312409        1.0042750785
 C          3.7138396765        3.7710130012        1.6208583087
 H          4.7500090398        4.0101860211        1.4346959631
 H          3.5312307272        3.3576423779        2.6023699588
 H          1.7536903795        4.8137193455        1.5696730732
 H          2.9676375517        5.4707347811        0.3965185858
 H          3.3723202375        3.1316649071       -0.4737156864
 O          3.1314941727        0.9735540950       -1.5493742102
