  62
        -98.92511825
 C          2.2928526210        1.0069229492        0.3684675605
 C          2.6167633004       -0.1153901613        1.1683741501
 C          3.6673661701       -1.0253293515        0.6734449000
 C          4.2604445804       -0.7440930614       -0.5015352599
 C          5.3291119001       -1.5223760616       -1.2230622000
 C          4.7853232497       -2.7841000811       -1.9104823205
 C          3.8298791692       -3.6158611510       -1.0592900010
 H          2.9779179495       -2.9984838607       -0.7675391508
 H          3.4435867290       -4.4235540206       -1.6866472013
 C          4.4498036888       -4.2473246617        0.1851085389
 H          3.6898525985       -4.8935425315        0.6319203786
 H          5.2891909886       -4.8791086819       -0.1135901012
 C          4.9323950191       -3.2726216323        1.2620344993
 H          5.8917484893       -2.8355475226        0.9983421496
 H          5.0959018887       -3.8521873427        2.1752714091
 C          3.9365936795       -2.1728073220        1.6171238996
 H          2.9607678393       -2.6243323317        1.8320843893
 H          4.2496800896       -1.7085167325        2.5602545698
 H          4.2467333400       -2.4741642905       -2.8092467205
 H          5.6317624195       -3.4000593713       -2.2188356506
 H          5.7350613205       -0.8571519215       -1.9882830197
 H          6.1349999999       -1.7718753922       -0.5393425600
 O          3.9129178909        0.3444293390       -1.2425650695
 C          2.9403045513        1.2467120693       -0.8436525993
 O          2.7703545318        2.1827196697       -1.6437920990
 H         -0.8764879193        0.3662299104        0.6308757198
 C         -0.9038964289        1.1580374907       -0.1053914899
 C          0.1131003016        2.1089092703       -0.1326261694
 C          0.0550921821        3.0952007607       -1.1110017991
 C         -0.9976913078        3.1351916514       -2.0090718292
 C         -2.0177927182        2.2048311118       -1.9560657997
 C         -1.9612885987        1.1966777215       -1.0002666100
 N         -2.9572938692        0.2079126419       -0.9453856005
 S         -3.3748425496       -0.4456057985        0.5529098092
 O         -3.4645025193        0.6024839712        1.5442531096
 O         -2.4788805501       -1.5358166490        0.8488080089
 C         -5.0005982999       -1.0811149477        0.1867337188
 C         -5.1170112403       -2.3293764274       -0.3949461417
 C         -6.3798889405       -2.8080728367       -0.7061697421
 C         -7.4987710402       -2.0349891964       -0.4334276919
 C         -7.3664174697       -0.7848049066        0.1521116685
 C         -6.1063980196       -0.2998207973        0.4653575889
 H         -5.9552644192        0.6610300025        0.9304916092
 H         -8.2380423795       -0.1875896763        0.3662019686
 H         -8.4802724303       -2.4107124759       -0.6758398722
 H         -6.4866374008       -3.7809079565       -1.1583206924
 H         -4.2197310305       -2.8970831277       -0.5793271618
 H         -3.7705834690        0.4366892624       -1.5001876205
 H         -2.8402889680        2.2462470524       -2.6538258998
 H         -1.0224136973        3.9105907717       -2.7599122989
 H          0.8448807524        3.8179849103       -1.2040422687
 C          1.2096738213        1.9431397894        0.8895604507
 H          0.7600221510        1.3802991993        1.7240070604
 C          1.8258492618        3.1775759189        1.5383139112
 C          2.5308217724        4.2833042089        0.8135752117
 C          1.2214832524        4.5479866792        1.4946309216
 H          1.2296976925        5.1337027389        2.4019172218
 H          0.3428191125        4.6932874298        0.8866732416
 H          3.4294389125        4.6787257084        1.2660387120
 H          2.5819304025        4.2396153893       -0.2616841583
 H          2.2807711515        2.8917453484        2.4841703112
 O          2.0512804902       -0.3560222814        2.2717358100
