  62
        -98.94229931
 C         -1.9992284096       -1.3330631903       -0.1484372611
 C         -3.0871618795       -1.2210828810        0.7572594291
 C         -4.2848848995       -0.5379647204        0.2591339499
 C         -4.3124258195       -0.0827632591       -1.0061152896
 C         -5.4677868395        0.6121190717       -1.6738412289
 C         -5.5368009992        2.1190870014       -1.3907588074
 C         -5.9785675291        2.4958136801        0.0240137930
 H         -6.1927421689        3.5664447801        0.0179647041
 H         -6.9088716591        1.9793511300        0.2624855126
 C         -4.9341828590        2.2083744689        1.1120023527
 H         -4.8504924588        3.0731300482        1.7742085535
 H         -3.9542699191        2.0662662792        0.6497805124
 C         -5.2482908591        0.9956814281        1.9883930915
 H         -6.1596666490        1.1834502976        2.5603255118
 H         -4.4265184490        0.8642909172        2.6970027213
 C         -5.4196132293       -0.3170092512        1.2127712902
 H         -5.4168977594       -1.1417671219        1.9295630394
 H         -6.3706096094       -0.3184415505        0.6804595303
 H         -6.2490881592        2.5510557222       -2.0975699969
 H         -4.5578163592        2.5588949015       -1.5956033870
 H         -6.4032442895        0.1409245815       -1.3708909792
 H         -5.3382177496        0.4693436727       -2.7488881590
 O         -3.2604635096       -0.2264736385       -1.8522427099
 C         -2.0718523097       -0.8243838690       -1.4455852006
 O         -1.1951486697       -0.8296075383       -2.3306888407
 O         -3.0583365195       -1.6827442322        1.9289536587
 C         -0.7570719897       -2.0356188910        0.3720085281
 C          0.2521833305       -1.0488182417        0.9006694490
 C          0.7976689706       -1.1937706830        2.1707111188
 C          1.7275070308       -0.2852359736        2.6470267996
 C          2.1376582909        0.7791492071        1.8649923506
 C          1.6032911508        0.9286234685        0.5910625008
 C          0.6679810706        0.0197442090        0.1175549200
 H          0.2565217705        0.1409267001       -0.8738113598
 N          2.0271534909        1.9952474092       -0.2209137082
 S          3.6765671809        2.2667293591       -0.3271848481
 O          4.1086746411        3.0405562679        0.8103841527
 O          3.8828924709        2.8784107803       -1.6207402575
 C          4.4183818307        0.6450693389       -0.2685916897
 C          4.1099808904       -0.2472989901       -1.2763749306
 C          4.6384576403       -1.5269581502       -1.2234393119
 C          5.4605700803       -1.8906984814       -0.1678188723
 C          5.7665577905       -0.9811423224        0.8323432586
 C          5.2400944107        0.2997967377        0.7850217399
 H          5.4497219409        1.0375801270        1.5421873906
 H          6.4080822606       -1.2661719233        1.6504663882
 H          5.8636137002       -2.8901246715       -0.1270511733
 H          4.3988281101       -2.2360904194       -1.9993953825
 H          3.4687475404        0.0668253808       -2.0853080602
 H          1.5967621908        2.0007179401       -1.1342198381
 H          2.8537317410        1.5015720667        2.2216190813
 H          2.1367355109       -0.4058405946        3.6381511795
 H          0.4759564206       -2.0166941435        2.7917020280
 H         -1.1166641297       -2.6273612018        1.2285175976
 C         -0.1606363399       -3.0143185301       -0.6312776529
 C          1.1341932201       -2.7918743296       -1.3471902828
 C          1.0488140300       -3.8232763806       -0.2652944238
 H          1.0740578898       -4.8674132404       -0.5370646248
 H          1.5292135701       -3.5961168216        0.6743124764
 H          1.1945309999       -3.1139046186       -2.3755892331
 H          1.6829940402       -1.8867162699       -1.1420229720
 H         -0.9348290700       -3.5253998194       -1.1953597033
