  62
        -98.93879700
 C         -1.8645799949       -0.6719963530        0.2878963452
 C         -2.2134447069        0.5999667556       -0.2363283869
 C         -3.5970367525        0.7632238987       -0.6990407360
 C         -4.4385784945       -0.2835270210       -0.6253759791
 C         -5.8875487166       -0.2501834129       -1.0150806404
 C         -6.7768323516        0.1175997187        0.1807871193
 C         -6.3028821114        1.3537915935        0.9450038063
 H         -7.0220782424        1.5362095192        1.7465022175
 H         -5.3433082378        1.1335256930        1.4183670335
 C         -6.1641489786        2.6174385872        0.0844794269
 H         -6.7232885762        2.4964256803       -0.8440044467
 H         -6.6079070188        3.4577152093        0.6226622424
 C         -4.7211363125        3.0082863520       -0.2403645381
 H         -4.1337013446        3.0383099875        0.6806937576
 H         -4.7287332711        4.0190856796       -0.6567398285
 C         -3.9946402118        2.1055606980       -1.2455433687
 H         -4.6046847597        1.9899287702       -2.1438169732
 H         -3.0611213179        2.6024689744       -1.5249557139
 H         -7.7936421100        0.2791675503       -0.1818352927
 H         -6.7931311531       -0.7275523906        0.8728945364
 H         -6.0249646662        0.4706873369       -1.8187404476
 H         -6.1697495992       -1.2409670901       -1.3752581072
 O         -4.0675535894       -1.4927492712       -0.1383538793
 C         -2.7791152752       -1.7255925252        0.3348860948
 O         -2.6073361308       -2.8855125109        0.7492430657
 H          2.0200635646        0.0652532461        0.1768437699
 C          1.7383398554       -0.7724260287       -0.4417982819
 C          0.4842809876       -1.3452423645       -0.2894361012
 C          0.1261220034       -2.4022762403       -1.1192171483
 C          1.0112423636       -2.8731238656       -2.0721583319
 C          2.2740361403       -2.3210697857       -2.1972420346
 C          2.6426634124       -1.2658347278       -1.3716040343
 N          3.9132324345       -0.6825332795       -1.4640504976
 S          4.7135511642       -0.2257645919       -0.0636419542
 O          6.1147586634       -0.2437887540       -0.4236638387
 O          4.3297415112       -1.0528175423        1.0553698140
 C          4.2064014391        1.4589254042        0.2022642473
 C          4.4100353628        2.3686991843       -0.8163390833
 C          4.0300300558        3.6865759153       -0.6220242798
 C          3.4569408490        4.0704344793        0.5811069137
 C          3.2626160874        3.1458104077        1.5953869233
 C          3.6413081900        1.8259037683        1.4072509791
 H          3.5031654115        1.0746234689        2.1694761948
 H          2.8150968747        3.4453872141        2.5295709027
 H          3.1586444824        5.0961795166        0.7301010731
 H          4.1785670380        4.4095864089       -1.4078648018
 H          4.8613828093        2.0325586485       -1.7348703608
 H          4.5347225273       -1.1176786940       -2.1300528143
 H          2.9692095660       -2.7034784815       -2.9291926430
 H          0.7204835309       -3.6916974486       -2.7134827954
 H         -0.8455442595       -2.8581669592       -1.0028784057
 C         -0.4385616766       -0.8253505512        0.7828722187
 H         -0.1131944625        0.2013465355        1.0168873867
 C         -0.3267169101       -1.6330622936        2.0689230943
 C          0.1862750722       -3.0370732963        2.1229092648
 C          1.0142175886       -1.9196835191        2.6791584675
 H          1.1169474007       -1.8400707905        3.7512656210
 H          1.9008294510       -1.6330466668        2.1313367544
 H          0.5051874634       -3.4976469670        1.2011712440
 H         -0.2977722159       -3.7221722661        2.8019998217
 H         -1.1293075925       -1.3942648631        2.7604085306
 O         -1.3992314175        1.5597889169       -0.3058054781
