  62
        -98.94605410
 C          1.4017824189        1.1448132800       -0.0436585605
 C          2.2840641087        0.6506996899        0.9539636196
 C          3.0249198686       -0.5730455502        0.6242677896
 C          2.8229082386       -1.1595490702       -0.5691307804
 C          3.5458511684       -2.3791113803       -1.0612165204
 C          4.8139873386       -1.9950400804       -1.8366539303
 C          5.7023306687       -0.9859869806       -1.1087562302
 H          6.5798928688       -0.8143984907       -1.7359173001
 H          5.1723727988       -0.0338005305       -1.0318680902
 C          6.1526184785       -1.4289970007        0.2904011499
 H          6.0267574483       -2.5071310007        0.3961491198
 H          7.2181115885       -1.2155941409        0.3986855900
 C          5.4370459585       -0.7192927807        1.4414319198
 H          5.4839692086        0.3621089793        1.2902845299
 H          5.9758685583       -0.9434561408        2.3658413299
 C          3.9707446684       -1.1135311804        1.6591351297
 H          3.8896442082       -2.2001952804        1.7257272996
 H          3.6492505084       -0.6845148504        2.6124075097
 H          5.3832990485       -2.9040090705       -2.0394457202
 H          4.5165656187       -1.5605161104       -2.7939728703
 H          3.8041165683       -3.0100036703       -0.2128757504
 H          2.8807175084       -2.9330616201       -1.7263187805
 O          1.9552362888       -0.6724243300       -1.4906152505
 C          1.2253028289        0.4854685601       -1.2598814805
 O          0.4790501591        0.7928668703       -2.2108454306
 H         -1.4202862709        1.7161908205       -1.3625803208
 C         -1.7073956510        1.6612123705       -0.3240625408
 C         -0.7916375610        2.0067195104        0.6592958293
 C         -1.1721810212        1.8899301504        1.9919271393
 C         -2.4367346813        1.4402061206        2.3294424291
 C         -3.3389344112        1.0742216507        1.3463192090
 C         -2.9609163711        1.1752822707        0.0139478191
 N         -3.8410095911        0.7228351909       -0.9909546910
 S         -4.3672321013       -0.8569536790       -0.7881940711
 O         -4.5504482913       -1.3865491290       -2.1214252612
 O         -5.5417198414       -0.8593921189        0.0489969188
 C         -3.0378455916       -1.7014208093        0.0565767290
 C         -3.2729391818       -2.2713087993        1.2914025289
 C         -2.2280827619       -2.8938702895        1.9548623790
 C         -0.9688914519       -2.9317323996        1.3768783991
 C         -0.7498029517       -2.3582917596        0.1341209992
 C         -1.7905983415       -1.7358781194       -0.5353342209
 H         -1.6334060213       -1.2770121094       -1.4993726509
 H          0.2307932184       -2.3815512898       -0.3148989107
 H         -0.1510228220       -3.4075981298        1.8945202492
 H         -2.3960061521       -3.3413960795        2.9210788990
 H         -4.2656139318       -2.2119160591        1.7070519888
 H         -3.4645235710        0.8438976509       -1.9210899610
 H         -4.3198682913        0.6968107509        1.5865280489
 H         -2.7187427814        1.3605059706        3.3679502991
 H         -0.4579293012        2.1356612402        2.7642146993
 C          0.6180912691        2.4042586201        0.2960321095
 H          1.0978139990        2.8065022800        1.1978469295
 C          0.6736101093        3.4587435102       -0.7897485705
 C          0.2908650695        4.8673701002       -0.4507873905
 C          1.7243096395        4.5245580900       -0.7212466204
 H          2.1728614596        4.8653370900       -1.6424458903
 H          2.4091417294        4.5001926099        0.1138251397
 H         -0.2478151803        5.4463186403       -1.1851208705
 H          0.0029325795        5.0736254402        0.5689359095
 H          0.4131119894        3.0889918302       -1.7728918905
 O          2.4463132087        1.2131372598        2.0683246196
