  62
        -98.93948963
 C          1.3931188506        0.8298857791       -0.1425313900
 C          2.5031900204        0.8113507790        0.7399957303
 C          3.4758337404       -0.2798349810        0.5750903205
 C          3.2665181806       -1.2030539709       -0.3786059896
 C          4.0885490707       -2.4250946309       -0.7057465295
 C          5.6156606807       -2.2795844609       -0.6879148191
 C          6.1405183608       -0.9125064009       -1.1506548888
 H          5.3308871010       -0.3351293809       -1.6002021990
 H          6.8988726111       -1.0655283709       -1.9206609786
 C          6.7764430605       -0.1030365210       -0.0181244686
 H          7.4345443007        0.6528952890       -0.4532220084
 H          7.3977177404       -0.7703990710        0.5830610015
 C          5.7935644603        0.6253686990        0.8976350612
 H          5.3243277305        1.4508708690        0.3558429411
 H          6.3626507301        1.0648418389        1.7203500514
 C          4.6689221401       -0.2418130311        1.4867027708
 H          4.3256448699        0.2344253389        2.4092763308
 H          5.0245327000       -1.2412831911        1.7256053308
 H          6.0132775809       -3.0621849509       -1.3364518790
 H          5.9892529204       -2.4840219510        0.3143944610
 H          3.7607466810       -2.7285106208       -1.7032815596
 H          3.7945783205       -3.2234506809       -0.0173837296
 O          2.1859490009       -1.1535688208       -1.2047395499
 C          1.2226316708       -0.1583556708       -1.1117809301
 O          0.3070169311       -0.2813154707       -1.9483435804
 O          2.6727348201        1.6799039390        1.6381149104
 C          0.3981126006        1.9564009291        0.0605343598
 C         -0.6973162397        1.5792427791        1.0327009694
 C         -1.2011307299        2.5223979090        1.9220902594
 C         -2.2174536302        2.1909820590        2.7988399591
 C         -2.7583563002        0.9179019990        2.7989799188
 C         -2.2595361600       -0.0344432410        1.9175465189
 C         -1.2351760597        0.3016231291        1.0427035892
 H         -0.8472227996       -0.4538390009        0.3784665893
 N         -2.7729210800       -1.3388984309        1.9118392287
 S         -2.9466719296       -2.1740043708        0.4715086186
 O         -3.9036458697       -3.2144805208        0.7887375682
 O         -1.6644268895       -2.6270551108       -0.0029421811
 C         -3.6962278193       -0.9963771808       -0.6378495316
 C         -5.0161385194       -0.6640558707       -0.3952306319
 C         -5.6290194691        0.2861125093       -1.1938520920
 C         -4.9127229688        0.8893703494       -2.2170671018
 C         -3.5926163888        0.5398427494       -2.4503706414
 C         -2.9709399590       -0.4118940707       -1.6547474913
 H         -1.9405895190       -0.6919397207       -1.8127666210
 H         -3.0325758185        1.0037561494       -3.2471262612
 H         -5.3858196886        1.6336115194       -2.8381656918
 H         -6.6578083892        0.5549951793       -1.0165864223
 H         -5.5408967396       -1.1670745308        0.4007734079
 H         -3.5631310402       -1.4853496410        2.5227168784
 H         -3.5504708604        0.6555340190        3.4831785086
 H         -2.5947768604        2.9301862089        3.4885416990
 H         -0.7786860999        3.5154908890        1.9350939196
 H          0.9745942904        2.7732300891        0.5178707100
 C         -0.2279384191        2.4705966392       -1.2218413204
 C         -0.6647762390        3.9004230192       -1.3155527304
 C          0.5335198912        3.4307578693       -2.0835617401
 H          0.4610155815        3.3268374593       -3.1555579301
 H          1.5113682411        3.7390564992       -1.7425739398
 H         -1.5690564189        4.1251423793       -1.8592987006
 H         -0.4947254992        4.5381743092       -0.4619310003
 H         -0.8314930889        1.7270222793       -1.7244566106
