  62
        -98.94106291
 C          1.7401693909       -0.9740417654       -0.3040629758
 C          2.1477750110        0.3752209360       -0.4504402528
 C          3.5961243754        0.5882163779       -0.5982933435
 C          4.4323216043       -0.4630073703       -0.6510041906
 C          5.9268077940       -0.4028937853       -0.8140254441
 C          6.6876316222       -0.1755301899        0.4994451545
 C          6.5800429561        1.2360220333        1.0779308075
 H          7.3286780259        1.3160931849        1.8686354912
 H          6.8403038278        1.9637902218        0.3087081324
 C          5.2037558564        1.5771466114        1.6664121673
 H          4.6417829159        0.6561618247        1.8385688961
 H          5.3318613309        2.0584475190        2.6386415115
 C          4.3608355571        2.5170006681        0.8040007620
 H          4.8518956935        3.4902630677        0.7348342772
 H          3.3960953870        2.6632415459        1.2974197384
 C          4.0939564508        2.0018365283       -0.6165009819
 H          3.3145958251        2.6223114031       -1.0660546624
 H          4.9972048763        2.0810386717       -1.2211087026
 H          6.3349064110       -0.8994384586        1.2377406160
 H          7.7419653367       -0.3858236643        0.3057648508
 H          6.2333236064       -1.3662622178       -1.2271821667
 H          6.1872717044        0.3798779480       -1.5269001732
 O          3.9923455413       -1.7475402970       -0.5810127460
 C          2.6498792973       -2.0320078489       -0.3906956177
 O          2.3919124775       -3.2505521734       -0.3298978386
 O          1.3644049021        1.3589106970       -0.4612369779
 C          0.2854341647       -1.3573509778       -0.0926964502
 C         -0.6087502082       -0.5812908278       -1.0266440212
 C         -0.5041604077       -0.8099332473       -2.3965332761
 C         -1.3016699430       -0.1227643531       -3.2903484010
 C         -2.2385338166        0.7894854334       -2.8363680998
 C         -2.3491480029        1.0257953315       -1.4719080006
 C         -1.5367878367        0.3433161527       -0.5762080317
 H         -1.6082484837        0.5834067105        0.4706712112
 N         -3.2871963366        1.9425653441       -0.9796731060
 S         -4.0285531970        1.6856288778        0.4903576711
 O         -5.2809297645        2.4057619593        0.3910392669
 O         -3.1688980946        2.0789226769        1.5778768150
 C         -4.3437061643       -0.0701473913        0.5691437758
 C         -3.9097992802       -0.7904222279        1.6630222788
 C         -4.1577230962       -2.1531160008        1.7127197633
 C         -4.8306063836       -2.7698547027        0.6697087366
 C         -5.2664173426       -2.0317057284       -0.4200775528
 C         -5.0240614043       -0.6688094803       -0.4727651566
 H         -5.3576465071       -0.0684512689       -1.3032562608
 H         -5.7917378649       -2.5143794754       -1.2282725445
 H         -5.0168132799       -3.8315253851        0.7078880899
 H         -3.8214879387       -2.7279929055        2.5611409514
 H         -3.3840494550       -0.2717000325        2.4489936605
 H         -3.9105694521        2.3394507789       -1.6660732435
 H         -2.8656581098        1.3260378040       -3.5319618766
 H         -1.2011452864       -0.3034113385       -4.3499869035
 H          0.2248980467       -1.5264156247       -2.7506026077
 H          0.2281338170       -2.4199761003       -0.3810208939
 C         -0.1704280325       -1.2763439173        1.3566569487
 C          0.7769931903       -1.5449076126        2.4862710322
 C          0.2454452210       -0.1617581888        2.2666750903
 H         -0.4809854108        0.2342161480        2.9621269127
 H          0.9084674038        0.5895453245        1.8671851245
 H          0.4181900260       -2.1076911983        3.3347049246
 H          1.8099147536       -1.7418640528        2.2377213025
 H         -1.1823797828       -1.6511376598        1.4783137957
