  62
        -98.93959391
 C         -1.0344210120       -1.3282149373       -0.2060657866
 C         -1.9644287569       -1.0818160409        0.8384296159
 C         -2.8832299275        0.0492196964        0.6522085251
 C         -2.7835965347        0.7913832266       -0.4650863454
 C         -3.7023011178        1.9161691666       -0.8505551152
 C         -5.0292225380        1.3461335123       -1.3918003613
 C         -6.2491644856        1.6595234358       -0.5251474752
 H         -6.5353931749        2.7022303816       -0.6784952092
 H         -7.0723666599        1.0370473225       -0.8823170800
 C         -6.0745818837        1.4390135783        0.9807932317
 H         -7.0747391820        1.4419040798        1.4194318282
 H         -5.5427916541        2.2858390092        1.4171596311
 C         -5.3606775304        0.1449607654        1.3928083593
 H         -5.8580073224       -0.2481099997        2.2818964874
 H         -5.4583730242       -0.6125182097        0.6147532571
 C         -3.8727312864        0.3193498914        1.7514257911
 H         -3.7108271157        1.3229480280        2.1540082829
 H         -3.6181802420       -0.3956502856        2.5391338454
 H         -4.9219620569        0.2641279546       -1.4930859491
 H         -5.2129770915        1.7375790168       -2.3934837211
 H         -3.8886309422        2.5559012877        0.0093050408
 H         -3.1993212806        2.4999883997       -1.6212583247
 O         -1.8626903362        0.5452913996       -1.4287861093
 C         -0.9668911936       -0.5071418149       -1.3313822956
 O         -0.1907027817       -0.5824473768       -2.3056446527
 H          1.7142699637       -1.0522959593       -1.3691450646
 C          2.0631810660       -1.3202225886       -0.3831754703
 C          1.2505909120       -2.0840719158        0.4426784402
 C          1.7071954139       -2.3933613996        1.7185049622
 C          2.9443805144       -1.9496169335        2.1542960173
 C          3.7463843905       -1.1781467661        1.3315700975
 C          3.2925466239       -0.8584741831        0.0592103269
 N          4.0731540869       -0.0134199195       -0.7676136281
 S          4.1094413504        1.5776823952       -0.2406925491
 O          4.6184938963        2.3534370164       -1.3483757515
 O          4.8704157981        1.6368515382        0.9813547257
 C          2.4079252850        2.0063729282        0.0872732390
 C          1.6559050389        2.5735712271       -0.9212202382
 C          0.3257972027        2.8739151645       -0.6780248149
 C         -0.2306755328        2.5857781599        0.5580656811
 C          0.5321031042        1.9977604955        1.5545912776
 C          1.8665246681        1.7082685277        1.3218944594
 H          2.4936787382        1.2646531519        2.0777250734
 H          0.0897296766        1.7602861218        2.5090038359
 H         -1.2675651931        2.8159688519        0.7454768251
 H         -0.2742524915        3.3204693811       -1.4545586645
 H          2.1246647506        2.7816550251       -1.8698682576
 H          3.7563645777       -0.0234476182       -1.7282872845
 H          4.6989628275       -0.7966777738        1.6617517695
 H          3.2847788839       -2.2003538448        3.1474456021
 H          1.0761519844       -2.9716701300        2.3774555609
 C         -0.1142852964       -2.5257443714       -0.0252448884
 H         -0.5689608776       -3.1156091393        0.7816057348
 C         -0.0186932845       -3.3986512338       -1.2611882654
 C          0.4318042263       -4.8197890323       -1.1124020507
 C         -0.9977828786       -4.5173385533       -1.4454143854
 H         -1.3541763177       -4.7309563637       -2.4419795018
 H         -1.7422514060       -4.6623300770       -0.6761223840
 H          0.6564173093       -5.1714068219       -0.1168471988
 H          1.0606173162       -5.2437013025       -1.8801622424
 H          0.2917804606       -2.8621200507       -2.1481590748
 O         -2.0273872973       -1.7880786417        1.8795663071
