  62
        -98.94093936
 C         -2.0580510499       -1.3582178825        0.3623090359
 C         -2.4932514774       -0.6278094805       -0.7716850172
 C         -3.6603779766        0.2407200854       -0.5593093632
 C         -4.2512112752        0.2960138549        0.6471799192
 C         -5.4606398592        1.1155240036        1.0068016796
 C         -5.1385991687        2.5689685954        1.3805240319
 C         -4.7277893193        3.4658485978        0.2118450055
 H         -5.4734496543        3.3931085635       -0.5803933599
 H         -4.7404050036        4.4946126458        0.5774365697
 C         -3.3355482007        3.1631437049       -0.3606075285
 H         -2.7684333158        2.5649990095        0.3568234823
 H         -2.7862307435        4.0972693762       -0.4993218057
 C         -3.3467570804        2.4403233052       -1.7078831924
 H         -3.7912908886        3.0882915199       -2.4665341176
 H         -2.3115685577        2.2422687140       -1.9990517346
 C         -4.1018308601        1.1044706949       -1.7016703287
 H         -5.1765750615        1.2791697335       -1.6572425434
 H         -3.8690121306        0.5763670096       -2.6294958897
 H         -4.3480238341        2.5690146646        2.1347337135
 H         -6.0344263969        2.9939699882        1.8389921773
 H         -6.1731553835        1.0997597470        0.1817800132
 H         -5.9187476325        0.6316678301        1.8722167752
 O         -3.8035359822       -0.4221856184        1.7116353602
 C         -2.6799842402       -1.2277783887        1.6062248176
 O         -2.3353268185       -1.7645321361        2.6785469708
 H          0.1564033846        0.1239628516        0.9245710734
 C          0.6683234747       -0.2875828478        0.0624256894
 C          0.2843334764       -1.5348666581       -0.4172714304
 C          0.9520253530       -2.0532977474       -1.5179713432
 C          1.9544185744       -1.3251461440       -2.1361960550
 C          2.3151667451       -0.0742575239       -1.6724227087
 C          1.6622391991        0.4484131701       -0.5626016435
 N          2.0218868839        1.7166916161       -0.0781954281
 S          3.6449095355        2.1070733292        0.0116524961
 O          3.7378980761        3.0863255805        1.0721075392
 O          4.1165761352        2.5356109232       -1.2815862087
 C          4.4692643254        0.5963049990        0.4824442241
 C          5.4259455672        0.0456517199       -0.3455454154
 C          6.0340919217       -1.1417258261        0.0296027887
 C          5.6734740775       -1.7565591413        1.2182780740
 C          4.7126687331       -1.1890017439        2.0414852338
 C          4.1034427978       -0.0009372794        1.6725449523
 H          3.3570299560        0.4682494953        2.2936753457
 H          4.4333895993       -1.6679797852        2.9662892190
 H          6.1436555540       -2.6830821865        1.5075789628
 H          6.7832131692       -1.5840097305       -0.6070446728
 H          5.6737198575        0.5557814708       -1.2621293575
 H          1.5236842760        2.0017965285        0.7511893645
 H          3.0744538333        0.5144890470       -2.1610583389
 H          2.4554061530       -1.7344530609       -3.0000615320
 H          0.6690199573       -3.0147140478       -1.9128555054
 C         -0.8294184312       -2.2506766855        0.3087300383
 H         -0.5206538492       -2.3689295975        1.3608775596
 C         -1.0962347945       -3.6518876394       -0.2206326298
 C         -2.4541636695       -4.2759708306       -0.1047600888
 C         -1.9144078516       -3.9008574080       -1.4505730459
 H         -1.6090746909       -4.6942425949       -2.1171607003
 H         -2.3308904396       -3.0433162635       -1.9542471579
 H         -3.2483086967       -3.6757611085        0.3156449545
 H         -2.5162812662       -5.3223779470        0.1542075775
 H         -0.2522467257       -4.3140619660       -0.0543685428
 O         -1.9485238944       -0.6852101155       -1.9028882358
