  62
        -98.93700065
 C          2.4674081632        1.4485585837        0.1227696456
 C          2.6070288188        0.4278331169       -0.8476634775
 C          3.5710148345       -0.6372119722       -0.5301234882
 C          4.2561964220       -0.6038319578        0.6260031044
 C          5.3029135151       -1.5838952185        1.0850497165
 C          4.8156481063       -3.0197865237        1.3598080771
 C          4.9717832988       -3.9788073721        0.1731654486
 H          5.7654669036       -3.6078559696       -0.4764521165
 H          5.3013142935       -4.9498906448        0.5479791444
 C          3.7075833827       -4.2274514197       -0.6555174607
 H          4.0083964493       -4.7086087530       -1.5887343854
 H          3.0600659739       -4.9256465783       -0.1199750138
 C          2.8695838770       -2.9915676709       -0.9850555505
 H          2.3072717843       -2.6809047516       -0.1001695951
 H          2.1248232476       -3.2738892449       -1.7327099382
 C          3.6794740601       -1.7829861063       -1.4941426034
 H          4.7219866027       -2.0564578233       -1.6488749805
 H          3.2692343404       -1.4347076430       -2.4440780324
 H          5.4138163254       -3.4033772851        2.1878328339
 H          3.7789486323       -2.9945143745        1.6954516906
 H          6.1074960186       -1.6095971299        0.3467519863
 H          5.7087907532       -1.1632331534        2.0072420080
 O          4.0944738312        0.3956689720        1.5344973589
 C          3.1979805684        1.4250751263        1.3159756582
 O          3.1472503977        2.2597783440        2.2411180052
 O          1.9789449407        0.3854545507       -1.9403636432
 C          1.5085778277        2.6216798729       -0.0276561795
 C          0.0998291888        2.1802982751        0.2907717760
 C         -0.5266867381        2.5929887318        1.4611309754
 C         -1.8024644033        2.1542200293        1.7692945035
 C         -2.4766869661        1.2935333376        0.9213375203
 C         -1.8535544542        0.8654322399       -0.2433331357
 C         -0.5805308631        1.3180412944       -0.5571282759
 H         -0.0939182313        0.9650139236       -1.4540423301
 N         -2.5223456157       -0.0224872118       -1.1067942986
 S         -3.1322342858       -1.4345793336       -0.4306787268
 O         -2.3830032181       -1.8309383646        0.7402198675
 O         -3.1838244057       -2.3893834100       -1.5164005525
 C         -4.7960716199       -0.9917659816        0.0255809359
 C         -5.6182612621       -0.4657174591       -0.9518585243
 C         -6.9177290910       -0.1193654944       -0.6181786090
 C         -7.3720110701       -0.3071013222        0.6789153733
 C         -6.5356661886       -0.8401923786        1.6476677625
 C         -5.2337979504       -1.1873314251        1.3206747079
 H         -4.5456586953       -1.5987573486        2.0420155926
 H         -6.8904055376       -0.9858960339        2.6553503275
 H         -8.3838042244       -0.0363537147        0.9364071225
 H         -7.5709701383        0.2954481041       -1.3688323016
 H         -5.2267748817       -0.3394029270       -1.9473855113
 H         -1.9887798266       -0.2372955565       -1.9379241588
 H         -3.4673445879        0.9420058626        1.1598677470
 H         -2.2763169723        2.4835935840        2.6814708277
 H          0.0036719650        3.2460798759        2.1391838569
 H          1.8118818178        3.3483083901        0.7375794280
 C          1.5968817690        3.2915309525       -1.3847271632
 C          1.0922907368        4.6940797602       -1.5333549226
 C          2.5644598812        4.4176272709       -1.5821039237
 H          3.0756500564        4.4961819083       -2.5298534485
 H          3.1682070679        4.7117247699       -0.7356912540
 H          0.5895004760        4.9658764281       -2.4486549303
 H          0.6973556634        5.1781983968       -0.6530255082
 H          1.4539203582        2.6124016984       -2.2143350344
