  62
        -98.94298195
 C         -2.6785545086       -1.1983398703        0.1179463656
 C         -2.7043472073       -0.1910106672       -0.8761465923
 C         -3.9100385971        0.6497572399       -0.9002160144
 C         -4.9015629076        0.4074303741       -0.0234035458
 C         -6.1572299141        1.2204809580        0.0974227753
 C         -5.9873141527        2.3551805535        1.1174578077
 C         -4.7177592267        3.1827100129        0.9159423660
 H         -4.7202428946        3.9706082256        1.6723124523
 H         -3.8463000663        2.5533476892        1.1108997236
 C         -4.5844337699        3.8122515619       -0.4777055313
 H         -5.5563981298        3.8262655001       -0.9722017201
 H         -4.2638452385        4.8498563357       -0.3634781047
 C         -3.5625683107        3.1282280734       -1.3879434779
 H         -2.6107614619        3.0260227082       -0.8602991037
 H         -3.3900621832        3.7757558593       -2.2517199290
 C         -3.9653118712        1.7485500353       -1.9238278509
 H         -4.9565211932        1.8043511156       -2.3783155309
 H         -3.2456633716        1.4705712136       -2.6993771626
 H         -6.8615139686        3.0060745355        1.0582146790
 H         -5.9560574986        1.9187180084        2.1185195133
 H         -6.4145613023        1.6295757040       -0.8775508940
 H         -6.9622205776        0.5628312192        0.4297187668
 O         -4.8507593722       -0.5886406459        0.8983469807
 C         -3.7362771765       -1.4043718373        1.0028226014
 O         -3.8057480801       -2.2606573864        1.9081055966
 H          0.9759038848       -2.2043835271       -1.0443077359
 C          0.9383278024       -1.4562185138       -0.2678425312
 C         -0.2239144108       -1.2763792681        0.4641539060
 C         -0.2324747449       -0.3104351918        1.4674537419
 C          0.8832556940        0.4657881590        1.7119031572
 C          2.0359608765        0.2961906247        0.9642456791
 C          2.0623901997       -0.6742764689       -0.0265219668
 N          3.2239729358       -0.8505528791       -0.7933208682
 S          4.7164074400       -0.9012864446       -0.0332511263
 O          5.5714680618       -1.6394544966       -0.9369523040
 O          4.6087959534       -1.4158513129        1.3121246240
 C          5.2411760454        0.7997879355        0.0010000038
 C          5.2720122464        1.4961659940       -1.1912357759
 C          5.6868053524        2.8182168596       -1.1832888060
 C          6.0643015638        3.4175439040        0.0092468219
 C          6.0316552983        2.7036938056        1.1972649688
 C          5.6169291982        1.3809093498        1.1961398893
 H          5.5708448737        0.7890453742        2.0965946431
 H          6.3260873515        3.1712297233        2.1231424096
 H          6.3860031894        4.4470574769        0.0125308918
 H          5.7132890169        3.3766661425       -2.1051460028
 H          4.9734282775        0.9947974689       -2.0967303789
 H          3.1469373351       -1.5613555695       -1.5057899311
 H          2.9082151890        0.9018851894        1.1472310933
 H          0.8566731972        1.2138683273        2.4899489854
 H         -1.1328366917       -0.1761487233        2.0524027397
 C         -1.4667353327       -2.1039416004        0.2413459388
 H         -1.6323782133       -2.7142884873        1.1414759845
 C         -1.3839132164       -3.0236885500       -0.9592218093
 C         -0.7334836708       -4.3683581714       -0.8378305814
 C         -2.2221298648       -4.2650065314       -0.9762724008
 H         -2.6767428301       -4.5680073565       -1.9075106852
 H         -2.8342347701       -4.4607161359       -0.1077799065
 H         -0.3316635550       -4.6449682003        0.1254985927
 H         -0.1680101695       -4.7479059040       -1.6759791005
 H         -1.2750181093       -2.4819867888       -1.8920438924
 O         -1.7716076106       -0.0026155947       -1.6997275380
