  62
        -98.93624819
 C          2.6528295501        1.1936331108        0.2039158310
 C          2.7803606304        0.1754189310       -0.7692559892
 C          4.0422833706       -0.5856295887       -0.7510693592
 C          4.9856888305       -0.2799472386        0.1563243809
 C          6.3576759106       -0.8836646983        0.3263595910
 C          6.4823693010       -2.4085846182        0.2086110007
 C          5.2668991212       -3.1993348686        0.7139654704
 H          5.6082170913       -3.9679712287        1.4098788503
 H          4.5926233709       -2.5395757489        1.2627171805
 C          4.4963481815       -3.8933161786       -0.4117142898
 H          5.2141371017       -4.3435019283       -1.1009685298
 H          3.9024606116       -4.7039247688        0.0172032800
 C          3.5391199913       -2.9996942487       -1.1996358197
 H          3.1459726416       -3.5833376887       -2.0354743099
 H          2.6861590112       -2.7245354391       -0.5731174798
 C          4.1488797910       -1.7006216984       -1.7513206894
 H          5.1747943511       -1.8533928481       -2.0774721493
 H          3.5513850411       -1.3894030684       -2.6124840594
 H          6.6760285812       -2.6797509080       -0.8282089293
 H          7.3673048410       -2.6967275581        0.7786443707
 H          7.0273310006       -0.4127479679       -0.3993056689
 H          6.6859086604       -0.5653889084        1.3188364311
 O          4.8161638201        0.7104592312        1.0789784011
 C          3.6573231299        1.4640337009        1.1307497111
 O          3.6408753296        2.3262461407        2.0331892413
 O          1.8916766706       -0.0799092891       -1.6225988294
 C          1.3972354898        2.0439452505        0.2497796910
 C          0.1734837200        1.1778881601        0.4253313707
 C          0.1724852702        0.2028099099        1.4194615005
 C         -0.9367597196       -0.5930306404        1.6297987002
 C         -2.0745098096       -0.4328714906        0.8576599701
 C         -2.0904267997        0.5443375096       -0.1265511897
 C         -0.9728748199        1.3436407399       -0.3353169994
 H         -1.0046479000        2.0992093101       -1.1050744793
 N         -3.2435742897        0.7144650694       -0.9114876098
 S         -4.7171717598        0.8949040789       -0.1288662499
 O         -5.5507628099        1.6271418789       -1.0573756399
 O         -4.5501111301        1.4788081587        1.1818402602
 C         -5.3376985094       -0.7673711013        0.0167340797
 C         -5.4422773691       -1.5278153311       -1.1314464904
 C         -5.9390282387       -2.8178391812       -1.0362564807
 C         -6.3239661187       -3.3215164616        0.1974878491
 C         -6.2156515691       -2.5442339918        1.3403987193
 C         -5.7181142994       -1.2533032216        1.2521954596
 H         -5.6109557197       -0.6145595118        2.1145046197
 H         -6.5158974591       -2.9374151520        2.2984284492
 H         -6.7112277585       -4.3256973117        0.2684663989
 H         -6.0243428785       -3.4257168611       -1.9226248209
 H         -5.1359981291       -1.0991660208       -2.0710395203
 H         -3.1398653898        1.3984067996       -1.6471650296
 H         -2.9427903694       -1.0519191108        1.0146025699
 H         -0.9168845795       -1.3474365006        2.4018841301
 H          1.0596416902        0.0779125600        2.0262442206
 H          1.4915101996        2.6769445503        1.1448519711
 C          1.3418500997        2.9381091207       -0.9720942689
 C          0.6608892994        4.2713937905       -0.9059917687
 C          2.1556634194        4.1956375309       -0.9820937885
 H          2.6420129394        4.4887515912       -1.9003540684
 H          2.7277143992        4.4214899509       -0.0938160284
 H          0.1229671894        4.6218730305       -1.7744432087
 H          0.2149283692        4.5601257602        0.0341199613
 H          1.2816511500        2.3749764508       -1.8966579690
