  62
        -98.94515290
 C         -2.2441032539        0.7912870316        0.0207473960
 C         -3.2067570309        0.6160928712       -1.0061419193
 C         -4.0320845989       -0.5949405755       -0.9222951287
 C         -3.8119001065       -1.4709308705        0.0749506441
 C         -4.6059110586       -2.7229186757        0.3077442323
 C         -5.7933397362       -2.4622055229        1.2453421684
 C         -6.6354556846       -1.2482949890        0.8525791646
 H         -7.4595011848       -1.1800026539        1.5660112612
 H         -6.0331515128       -0.3445306994        0.9697543717
 C         -7.1972747328       -1.3008109580       -0.5750140517
 H         -7.1634838622       -2.3247348298       -0.9488471906
 H         -8.2464933787       -0.9993383441       -0.5496026147
 C         -6.4916260699       -0.3754901839       -1.5679751040
 H         -7.0969860077       -0.3271299430       -2.4769284821
 H         -6.4407195663        0.6347352085       -1.1543775019
 C         -5.0768467171       -0.7979316854       -1.9835770054
 H         -5.0864605087       -1.8367461751       -2.3197356202
 H         -4.7748802683       -0.1672629753       -2.8247476086
 H         -6.4219632873       -3.3544017045        1.2615918170
 H         -5.4075635505       -2.2999072784        2.2545145795
 H         -4.9605739593       -3.1044976737       -0.6477885002
 H         -3.9491475189       -3.4657267224        0.7639389887
 O         -2.8588566489       -1.2870115860        1.0229937800
 C         -2.0542632881       -0.1564006745        1.0266323404
 O         -1.2371998457       -0.1246587424        1.9679301472
 O         -3.3675031724        1.4371478128       -1.9477396360
 C         -1.3608913217        2.0278962290       -0.0407097835
 C          0.0255325056        1.5828080570       -0.4347328409
 C          0.3253579200        1.3946520987       -1.7811990202
 C          1.5606031927        0.9100181000       -2.1677986327
 C          2.5187924168        0.5918526488       -1.2206591001
 C          2.2228102869        0.7605148464        0.1247043529
 C          0.9908465497        1.2718897217        0.5101660844
 H          0.7694299980        1.3835643840        1.5597737799
 N          3.1832441179        0.4209401620        1.0950343632
 S          3.8982941189       -1.0947893004        0.9792925779
 O          3.0356598765       -2.0498577736        0.3222713779
 O          4.3174241251       -1.4218666883        2.3250913373
 C          5.3474837110       -0.7968123810       -0.0140293824
 C          5.5845055990       -1.5680985170       -1.1349064844
 C          6.7247784753       -1.3273531374       -1.8858710976
 C          7.6037165705       -0.3255888353       -1.5037994952
 C          7.3524907835        0.4388411177       -0.3740049100
 C          6.2152333218        0.2024575262        0.3815770461
 H          5.9844816960        0.7712275520        1.2667028051
 H          8.0382920260        1.2170947336       -0.0802481317
 H          8.4896601863       -0.1395687889       -2.0901983940
 H          6.9211688785       -1.9210933422       -2.7642045988
 H          4.8690608976       -2.3315796556       -1.3966048596
 H          2.8633329420        0.5820624290        2.0399052966
 H          3.4794059893        0.2001166869       -1.5129778265
 H          1.7799152542        0.7730667315       -3.2157974003
 H         -0.4320366593        1.6175426046       -2.5196274061
 H         -1.7695925450        2.6345811517       -0.8597411429
 C         -1.4050642399        2.8397707330        1.2364776258
 C         -0.8512559895        4.2324819766        1.2348555748
 C         -2.3307187842        4.0143028322        1.3271426807
 H         -2.8242747109        4.2081862470        2.2677478257
 H         -2.9360708165        4.2417631010        0.4620257104
 H         -0.3265959131        4.5801243845        2.1115562047
 H         -0.4507630543        4.6058175893        0.3046338180
 H         -1.2771112124        2.2440314811        2.1318697389
