  62
        -98.93683701
 C         -2.1203203766       -1.3510432972       -0.0179717643
 C         -2.8572712106       -0.6060732211        0.9291451628
 C         -3.6369814770        0.5357897226        0.4171085890
 C         -3.5625410379        0.8403982506       -0.8911914006
 C         -4.2572860327        1.9465644481       -1.6446564352
 C         -4.2760941518        3.3308515997       -0.9778070927
 C         -5.6605677439        3.7468816067       -0.4772098477
 H         -5.6983196254        4.8371365804       -0.4233378307
 H         -6.4039400460        3.4309471770       -1.2119262074
 C         -6.0459168220        3.2032220700        0.8975090101
 H         -5.4602886199        3.7143768043        1.6647929254
 H         -7.0953108791        3.4536933369        1.0691898257
 C         -5.8658572019        1.6947137098        1.0784208334
 H         -6.5225580741        1.3754004756        1.8903130184
 H         -6.1838620376        1.1617697780        0.1832453187
 C         -4.4325802362        1.2865853974        1.4503546734
 H         -4.4532574411        0.6217560349        2.3196547590
 H         -3.8627373065        2.1674762786        1.7612652494
 H         -3.5519591191        3.3611031544       -0.1647065939
 H         -3.9530148576        4.0617009345       -1.7211452508
 H         -5.2792033002        1.6273471736       -1.8641804984
 H         -3.7362330510        2.0042538541       -2.6030746568
 O         -2.8079820565        0.1135668879       -1.7646908039
 C         -2.0706975233       -0.9874082192       -1.3632022780
 O         -1.4328560067       -1.5401946310       -2.2780319331
 O         -2.8641067806       -0.8800201104        2.1612961876
 C         -1.2962155039       -2.5361674069        0.4554998021
 C          0.1658926107       -2.2289829790        0.2429662120
 C          1.0278773950       -3.0258310404       -0.4971140902
 C          2.3468397804       -2.6457957963       -0.6807597136
 C          2.8344880830       -1.4757219134       -0.1288770947
 C          1.9817444440       -0.6747408320        0.6201230996
 C          0.6638085063       -1.0582059941        0.8035299203
 H         -0.0026245800       -0.4294252035        1.3821927620
 N          2.4704652897        0.5178556496        1.1918946923
 S          3.1032622838        1.6562503384        0.1261121669
 O          2.9579896866        2.9281725074        0.8014695127
 O          2.4997989486        1.5509466031       -1.1828734384
 C          4.8311692661        1.2365978393        0.0441294926
 C          5.4046162967        0.9131052878       -1.1697940181
 C          6.7521598614        0.5894045575       -1.2083663964
 C          7.4972286424        0.5953738365       -0.0390153197
 C          6.9062796157        0.9253145986        1.1718200233
 C          5.5601846389        1.2508273715        1.2173366312
 H          5.0623059098        1.5170159762        2.1346847756
 H          7.4890121134        0.9286610815        2.0787291819
 H          8.5449097610        0.3412920706       -0.0717760303
 H          7.2129535461        0.3332682747       -2.1488171658
 H          4.7829834648        0.9160810089       -2.0511053126
 H          1.8007243952        0.9638780536        1.8034833588
 H          3.8592944328       -1.1756554815       -0.2750190434
 H          3.0041616922       -3.2706616909       -1.2658398610
 H          0.6646748762       -3.9367618233       -0.9430640887
 H         -1.4766682845       -2.6022101469        1.5385288696
 C         -1.7588664419       -3.8206167631       -0.1962420163
 C         -1.5055561794       -5.1340391499        0.4798981398
 C         -2.8954874240       -4.5778365143        0.4201199617
 H         -3.6143300232       -5.0490197233       -0.2331562187
 H         -3.3270909021       -4.1762223938        1.3253627157
 H         -1.2710686290       -5.9920441198       -0.1314983354
 H         -0.9926265284       -5.1149307472        1.4294417659
 H         -1.7134959166       -3.7811921675       -1.2784482269
