  62
        -98.94523812
 C         -1.6009860949       -0.2324619978       -0.6145499202
 C         -2.8736304433       -0.7773889771       -0.9183537511
 C         -3.9160234782       -0.5983116816        0.1000696227
 C         -3.6054876516        0.0181523617        1.2549736954
 C         -4.5762431397        0.3004904877        2.3641643967
 C         -5.2305570812        1.6788062309        2.1945301446
 C         -5.7888017989        1.9293122294        0.7936403223
 H         -6.2526883801        2.9179735254        0.8008674600
 H         -4.9608468918        1.9674738156        0.0822222653
 C         -6.8128851709        0.8873293106        0.3226691066
 H         -7.6572354688        1.4079279745       -0.1340391396
 H         -7.1990880420        0.3337970560        1.1793205113
 C         -6.2811556584       -0.0982876442       -0.7195298451
 H         -7.1322653576       -0.6410289579       -1.1392859371
 H         -5.8090519037        0.4525603130       -1.5367951465
 C         -5.2837523935       -1.1429151131       -0.2029101068
 H         -5.6995740225       -1.6480602463        0.6713885287
 H         -5.1414773262       -1.8859250859       -0.9931022692
 H         -4.4818332356        2.4453233716        2.4074398078
 H         -6.0314181753        1.7729302086        2.9302074404
 H         -5.3386028685       -0.4761265803        2.3788286214
 H         -4.0316569379        0.2797710346        3.3098381531
 O         -2.3667360329        0.5005865271        1.5256967775
 C         -1.3348025725        0.3973351782        0.6019830403
 O         -0.2649441667        0.9078073591        0.9821794085
 H          2.0631539108       -0.0934390033       -0.6475448487
 C          1.7330728490       -1.1163205019       -0.6325438257
 C          0.4751481689       -1.4450293018       -1.1103750724
 C          0.0756645835       -2.7794458398       -1.0801052876
 C          0.9179579840       -3.7554502693       -0.5848188962
 C          2.1692141646       -3.4196710086       -0.0953479096
 C          2.5743711577       -2.0916128029       -0.1135643607
 N          3.8439999069       -1.7123684826        0.3575431896
 S          3.9371252714       -0.4660827242        1.4853749825
 O          5.2376921031       -0.6471902527        2.0992936328
 O          2.8085352397       -0.4879068960        2.3853802451
 C          3.9731978207        1.0222442256        0.5110496414
 C          5.0719816622        1.2303738211       -0.2998038803
 C          5.1243712406        2.3775329944       -1.0746437748
 C          4.0834581599        3.2927381969       -1.0225073022
 C          2.9905084331        3.0698345675       -0.1990649222
 C          2.9293032449        1.9236922733        0.5794434512
 H          2.0791711456        1.7026877743        1.2071903470
 H          2.1771401421        3.7774578098       -0.1607664770
 H          4.1214402915        4.1850406217       -1.6276552410
 H          5.9720647823        2.5543251986       -1.7168149437
 H          5.8604987706        0.4964721537       -0.3033860413
 H          4.4191350749       -2.4885128758        0.6548215056
 H          2.8260515744       -4.1802015708        0.3000923746
 H          0.5979397508       -4.7866443327       -0.5719704944
 H         -0.9074300467       -3.0375930613       -1.4488687409
 C         -0.4876267778       -0.4076694882       -1.6354419193
 H         -0.9778253535       -0.8267165294       -2.5256201012
 C          0.1691684162        0.9042117993       -2.0070504594
 C          1.0529669865        0.9696429628       -3.2157615262
 C         -0.2875555884        1.6389474648       -3.2299709556
 H         -0.3275251429        2.7172175383       -3.1968675320
 H         -1.0759429622        1.1914346966       -3.8175248325
 H          1.9377544817        1.5863008748       -3.1715860001
 H          1.1737217118        0.0651809837       -3.7923706007
 H          0.4469621608        1.5004773359       -1.1470262966
 O         -3.1253422238       -1.3862473927       -1.9929268150
