  62
        -98.93908751
 C         -1.9033595092       -0.2960658338       -0.6292862040
 C         -2.9531415415       -1.1915096197       -0.3222201476
 C         -4.3136379644       -0.6280481765       -0.2872731990
 C         -4.4901586026        0.6840787779       -0.5315312001
 C         -5.7495182124        1.5226678575       -0.6020725129
 C         -7.0732023127        0.9945698171       -0.0547327033
 C         -7.1140196657        0.8186365788        1.4628203294
 H         -7.0903044965        1.8074217534        1.9279095566
 H         -8.0647884583        0.3501268116        1.7264117695
 C         -5.9736035978        0.0000314366        2.0627414698
 H         -6.1272899174       -0.0439419966        3.1444256452
 H         -5.0250899037        0.5141636300        1.8939493691
 C         -5.8595221627       -1.4345451736        1.5508841743
 H         -5.1211537123       -1.9478088684        2.1726414133
 H         -6.8153470633       -1.9467617938        1.6763392641
 C         -5.4122089604       -1.5815290961        0.0859591358
 H         -5.0010207455       -2.5871043212       -0.0416605484
 H         -6.2528839251       -1.4841369650       -0.5967102369
 H         -7.3446170032        0.0686178420       -0.5530157181
 H         -7.8353188440        1.7319666143       -0.3214147513
 H         -5.5059581443        2.4653604368       -0.1017038575
 H         -5.8854260753        1.7643447733       -1.6621353919
 O         -3.4426203067        1.5098402149       -0.8259696016
 C         -2.1349127413        1.0547472570       -0.8792618685
 O         -1.2969431085        1.9347260576       -1.1522812999
 H          1.8483645864        0.6449776833       -1.0657012245
 C          1.5224178285        0.6044553231       -0.0405778626
 C          0.3748585035       -0.0856001825        0.3140815261
 C         -0.0155661284       -0.0882885521        1.6519442354
 C          0.7141437153        0.5959535896        2.6031064628
 C          1.8579050705        1.2884188623        2.2437086994
 C          2.2597088308        1.2943157267        0.9142390056
 N          3.4053453657        2.0052575466        0.5228069441
 S          4.5223696805        1.3287551890       -0.5189924936
 O          5.6881399387        2.1758967449       -0.3970807236
 O          3.9663205328        1.1944584308       -1.8404306899
 C          4.8634598377       -0.2750433728        0.1820415188
 C          4.1683039098       -1.3794371466       -0.2667124154
 C          4.3953512838       -2.6042585427        0.3413486766
 C          5.3073332211       -2.7030909654        1.3805767312
 C          6.0016315162       -1.5845104910        1.8164901404
 C          5.7756103270       -0.3566688579        1.2164973203
 H          6.3007359294        0.5352606930        1.5177458701
 H          6.7144669450       -1.6658518026        2.6211901719
 H          5.4795113868       -3.6584207587        1.8507456523
 H          3.8577704099       -3.4752870822        0.0018876194
 H          3.4710525799       -1.2655381635       -1.0799387351
 H          3.8694657760        2.4921748519        1.2754747194
 H          2.4263998612        1.8311290756        2.9836406894
 H          0.3939352877        0.5902805109        3.6340732936
 H         -0.9108038706       -0.6272681090        1.9309292130
 C         -0.4807206018       -0.8237889621       -0.6844817895
 H         -0.5503776857       -1.8752362642       -0.3687198803
 C          0.0465415344       -0.7774027025       -2.1022312604
 C          1.0771443802       -1.7672321144       -2.5533734059
 C         -0.3314926159       -1.8706709539       -3.0544614708
 H         -0.5375024239       -1.6102574222       -4.0818377515
 H         -0.9526226109       -2.6676997612       -2.6725579818
 H          1.8459144777       -1.4358789606       -3.2360859666
 H          1.4052581302       -2.5043643641       -1.8358022229
 H          0.0962978503        0.2300807511       -2.5009594354
 O         -2.7641556918       -2.4156456388       -0.0888235672
